@<TRIPOS>MOLECULE
*****
 4 3 0 0 0
SMALL
GASTEIGER

@<TRIPOS>ATOM
      1 N           0.0000    0.0000    0.0000 N.pl3   1  UNL1       -0.6881
      2 H           0.0000    0.0000    0.0000 H       1  UNL1       -0.1295
      3 C           0.0000    0.0000    0.0000 C.2     1  UNL1       -0.1537
      4 C           0.0000    0.0000    0.0000 C.2     1  UNL1       -0.0287
@<TRIPOS>BOND
     1     1     2    1
     2     1     3    1
     3     3     4    2
@<TRIPOS>MOLECULE
*****
 3 3 0 0 0
SMALL
GASTEIGER

@<TRIPOS>ATOM
      1 P           0.0000    0.0000    0.0000 P.3     1  UNL1        0.0000
      2 P           0.0000    0.0000    0.0000 P.3     1  UNL1        0.0000
      3 P           0.0000    0.0000    0.0000 P.3     1  UNL1        0.0000
@<TRIPOS>BOND
     1     1     2    1
     2     2     3    1
     3     1     3    1
@<TRIPOS>MOLECULE
*****
 5 4 0 0 0
SMALL
GASTEIGER

@<TRIPOS>ATOM
      1 C           0.0000    0.0000    0.0000 C.3     1  UNL1        0.0366
      2 C           0.0000    0.0000    0.0000 C.2     1  UNL1        0.0251
      3 S           0.0000    0.0000    0.0000 S.3     1  UNL1        0.1403
      4 O           0.0000    0.0000    0.0000 O.2     1  UNL1       -0.2387
      5 C           0.0000    0.0000    0.0000 C.3     1  UNL1        0.0366
@<TRIPOS>BOND
     1     1     2    1
     2     2     3    2
     3     3     4    2
     4     2     5    1
@<TRIPOS>MOLECULE
*****
 5 5 0 0 0
SMALL
GASTEIGER

@<TRIPOS>ATOM
      1 N           0.0000    0.0000    0.0000 N.ar    1  UNL1       -0.2186
      2 N           0.0000    0.0000    0.0000 N.ar    1  UNL1       -0.2186
      3 N           0.0000    0.0000    0.0000 N.ar    1  UNL1       -0.2961
      4 C           0.0000    0.0000    0.0000 C.ar    1  UNL1        0.0293
      5 N           0.0000    0.0000    0.0000 N.ar    1  UNL1       -0.2961
@<TRIPOS>BOND
     1     1     2   ar
     2     2     3   ar
     3     3     4   ar
     4     4     5   ar
     5     1     5   ar
@<TRIPOS>MOLECULE
*****
 5 4 0 0 0
SMALL
GASTEIGER

@<TRIPOS>ATOM
      1 C           0.0000    0.0000    0.0000 C.3     1  UNL1        0.1404
      2 C           0.0000    0.0000    0.0000 C.2     1  UNL1        0.3157
      3 O           0.0000    0.0000    0.0000 O.2     1  UNL1       -0.2794
      4 H           0.0000    0.0000    0.0000 H       1  UNL1        0.6829
      5 C           0.0000    0.0000    0.0000 C.3     1  UNL1        0.1404
@<TRIPOS>BOND
     1     1     2    1
     2     2     3    2
     3     3     4    1
     4     2     5    1
@<TRIPOS>MOLECULE
*****
 5 4 0 0 0
SMALL
GASTEIGER

@<TRIPOS>ATOM
      1 C           0.0000    0.0000    0.0000 C.3     1  UNL1        0.2001
      2 C           0.0000    0.0000    0.0000 C.2     1  UNL1        0.5396
      3 O           0.0000    0.0000    0.0000 O.2     1  UNL1       -0.2391
      4 H           0.0000    0.0000    0.0000 H       1  UNL1        0.6874
      5 O           0.0000    0.0000    0.0000 O.2     1  UNL1       -0.1879
@<TRIPOS>BOND
     1     1     2    1
     2     2     3    2
     3     3     4    1
     4     2     5    1
@<TRIPOS>MOLECULE
*****
 5 4 0 0 0
SMALL
GASTEIGER

@<TRIPOS>ATOM
      1 C           0.0000    0.0000    0.0000 C.3     1  UNL1        0.1224
      2 C           0.0000    0.0000    0.0000 C.2     1  UNL1        0.2904
      3 N           0.0000    0.0000    0.0000 N.2     1  UNL1       -0.1708
      4 N           0.0000    0.0000    0.0000 N.2     1  UNL1       -0.3645
      5 C           0.0000    0.0000    0.0000 C.3     1  UNL1        0.1224
@<TRIPOS>BOND
     1     1     2    1
     2     2     3    2
     3     3     4    2
     4     2     5    1
@<TRIPOS>MOLECULE
*****
 6 5 0 0 0
SMALL
GASTEIGER

@<TRIPOS>ATOM
      1 C           0.0000    0.0000    0.0000 C.3     1  UNL1       -0.3439
      2 N           0.0000    0.0000    0.0000 N.3     1  UNL1       -0.1431
      3 S           0.0000    0.0000    0.0000 S.O2    1  UNL1       -0.2305
      4 O           0.0000    0.0000    0.0000 O.2     1  UNL1       -0.2074
      5 O           0.0000    0.0000    0.0000 O.2     1  UNL1       -0.2074
      6 C           0.0000    0.0000    0.0000 C.3     1  UNL1        0.1323
@<TRIPOS>BOND
     1     1     2    1
     2     2     3    1
     3     3     4    2
     4     3     5    2
     5     3     6    1
@<TRIPOS>MOLECULE
*****
 9 9 0 0 0
SMALL
GASTEIGER

@<TRIPOS>ATOM
      1 N           0.0000    0.0000    0.0000 N.2     1  UNL1       -0.3277
      2 N           0.0000    0.0000    0.0000 N.2     1  UNL1       -0.0073
      3 N           0.0000    0.0000    0.0000 N.2     1  UNL1        0.1401
      4 C           0.0000    0.0000    0.0000 C.ar    1  UNL1        0.2891
      5 N           0.0000    0.0000    0.0000 N.ar    1  UNL1       -0.1628
      6 S           0.0000    0.0000    0.0000 S.2     1  UNL1        0.1196
      7 N           0.0000    0.0000    0.0000 N.ar    1  UNL1       -0.1698
      8 C           0.0000    0.0000    0.0000 C.ar    1  UNL1        0.2218
      9 N           0.0000    0.0000    0.0000 N.pl3   1  UNL1       -0.1029
@<TRIPOS>BOND
     1     1     2    2
     2     2     3    2
     3     3     4    1
     4     4     5   ar
     5     5     6   ar
     6     6     7   ar
     7     7     8   ar
     8     4     8   ar
     9     8     9    1
@<TRIPOS>MOLECULE
*****
 10 10 0 0 0
SMALL
GASTEIGER

@<TRIPOS>ATOM
      1 S           0.0000    0.0000    0.0000 S.3     1  UNL1       -0.7438
      2 C           0.0000    0.0000    0.0000 C.2     1  UNL1       -0.0543
      3 S           0.0000    0.0000    0.0000 S.2     1  UNL1       -0.0773
      4 C           0.0000    0.0000    0.0000 C.ar    1  UNL1        0.2736
      5 N           0.0000    0.0000    0.0000 N.ar    1  UNL1       -0.2680
      6 C           0.0000    0.0000    0.0000 C.3     1  UNL1        0.1364
      7 C           0.0000    0.0000    0.0000 C.ar    1  UNL1        0.1570
      8 C           0.0000    0.0000    0.0000 C.ar    1  UNL1        0.3104
      9 N           0.0000    0.0000    0.0000 N.ar    1  UNL1       -0.1435
     10 C           0.0000    0.0000    0.0000 C.3     1  UNL1        0.4095
@<TRIPOS>BOND
     1     1     2    1
     2     2     3    2
     3     2     4    1
     4     4     5   ar
     5     5     6    1
     6     5     7   ar
     7     7     8   ar
     8     8     9   ar
     9     4     9   ar
    10     9    10    1
@<TRIPOS>MOLECULE
*****
 12 13 0 0 0
SMALL
GASTEIGER

@<TRIPOS>ATOM
      1 S           0.0000    0.0000    0.0000 S.2     1  UNL1       -0.0766
      2 C           0.0000    0.0000    0.0000 C.2     1  UNL1       -0.0735
      3 N           0.0000    0.0000    0.0000 N.am    1  UNL1       -0.5302
      4 S           0.0000    0.0000    0.0000 S.O2    1  UNL1       -0.0575
      5 O           0.0000    0.0000    0.0000 O.2     1  UNL1       -0.1841
      6 O           0.0000    0.0000    0.0000 O.2     1  UNL1       -0.1841
      7 C           0.0000    0.0000    0.0000 C.ar    1  UNL1        0.0880
      8 C           0.0000    0.0000    0.0000 C.ar    1  UNL1        0.0000
      9 C           0.0000    0.0000    0.0000 C.ar    1  UNL1       -0.0001
     10 C           0.0000    0.0000    0.0000 C.ar    1  UNL1        0.0000
     11 C           0.0000    0.0000    0.0000 C.ar    1  UNL1        0.0013
     12 C           0.0000    0.0000    0.0000 C.ar    1  UNL1        0.0169
@<TRIPOS>BOND
     1     1     2    2
     2     2     3    1
     3     3     4    1
     4     4     5    2
     5     4     6    2
     6     4     7    1
     7     7     8   ar
     8     2     8    1
     9     8     9   ar
    10     9    10   ar
    11    10    11   ar
    12    11    12   ar
    13     7    12   ar
@<TRIPOS>MOLECULE
*****
 15 16 0 0 0
SMALL
GASTEIGER

@<TRIPOS>ATOM
      1 C           0.0000    0.0000    0.0000 C.3     1  UNL1        0.0301
      2 C           0.0000    0.0000    0.0000 C.3     1  UNL1        0.1179
      3 C           0.0000    0.0000    0.0000 C.3     1  UNL1        0.0301
      4 N           0.0000    0.0000    0.0000 N.2     1  UNL1       -0.2625
      5 C           0.0000    0.0000    0.0000 C.2     1  UNL1        0.1059
      6 S           0.0000    0.0000    0.0000 S.3     1  UNL1       -0.0613
      7 C           0.0000    0.0000    0.0000 C.2     1  UNL1        0.0971
      8 S           0.0000    0.0000    0.0000 S.3     1  UNL1        0.1530
      9 O           0.0000    0.0000    0.0000 O.2     1  UNL1       -0.2378
     10 C           0.0000    0.0000    0.0000 C.ar    1  UNL1        0.0234
     11 C           0.0000    0.0000    0.0000 C.ar    1  UNL1        0.0020
     12 C           0.0000    0.0000    0.0000 C.ar    1  UNL1        0.0001
     13 C           0.0000    0.0000    0.0000 C.ar    1  UNL1        0.0000
     14 C           0.0000    0.0000    0.0000 C.ar    1  UNL1        0.0001
     15 C           0.0000    0.0000    0.0000 C.ar    1  UNL1        0.0020
@<TRIPOS>BOND
     1     1     2    1
     2     2     3    1
     3     2     4    1
     4     4     5    2
     5     5     6    1
     6     6     7    1
     7     2     7    1
     8     7     8    2
     9     8     9    2
    10     5    10    1
    11    10    11   ar
    12    11    12   ar
    13    12    13   ar
    14    13    14   ar
    15    14    15   ar
    16    10    15   ar
@<TRIPOS>MOLECULE
*****
 10 9 0 0 0
SMALL
GASTEIGER

@<TRIPOS>ATOM
      1 O           0.0000    0.0000    0.0000 O.co2   1  UNL1       -0.8426
      2 C           0.0000    0.0000    0.0000 C.2     1  UNL1        0.1442
      3 C           0.0000    0.0000    0.0000 C.2     1  UNL1        0.3678
      4 N           0.0000    0.0000    0.0000 N.pl3   1  UNL1        0.0949
      5 O           0.0000    0.0000    0.0000 O.2     1  UNL1        0.0425
      6 O           0.0000    0.0000    0.0000 O.co2   1  UNL1       -0.5752
      7 CL          0.0000    0.0000    0.0000 Cl      1  UNL1       -0.0032
      8 O           0.0000    0.0000    0.0000 O.2     1  UNL1       -0.4836
      9 C           0.0000    0.0000    0.0000 C.3     1  UNL1        0.2041
     10 C           0.0000    0.0000    0.0000 C.3     1  UNL1        0.0511
@<TRIPOS>BOND
     1     1     2    1
     2     2     3    2
     3     3     4    1
     4     4     5    2
     5     4     6    1
     6     3     7    1
     7     2     8    1
     8     8     9    1
     9     9    10    1
@<TRIPOS>MOLECULE
*****
 14 15 0 0 0
SMALL
GASTEIGER

@<TRIPOS>ATOM
      1 C           0.0000    0.0000    0.0000 C.3     1  UNL1        0.0585
      2 C           0.0000    0.0000    0.0000 C.ar    1  UNL1        0.1309
      3 N           0.0000    0.0000    0.0000 N.ar    1  UNL1        0.0401
      4 N           0.0000    0.0000    0.0000 N.ar    1  UNL1        0.0720
      5 O           0.0000    0.0000    0.0000 O.co2   1  UNL1       -0.5714
      6 N           0.0000    0.0000    0.0000 N.ar    1  UNL1        0.0445
      7 C           0.0000    0.0000    0.0000 C.ar    1  UNL1        0.1525
      8 C           0.0000    0.0000    0.0000 C.ar    1  UNL1        0.0459
      9 C           0.0000    0.0000    0.0000 C.ar    1  UNL1        0.0236
     10 C           0.0000    0.0000    0.0000 C.ar    1  UNL1        0.0017
     11 C           0.0000    0.0000    0.0000 C.ar    1  UNL1        0.0001
     12 C           0.0000    0.0000    0.0000 C.ar    1  UNL1        0.0000
     13 C           0.0000    0.0000    0.0000 C.ar    1  UNL1        0.0001
     14 C           0.0000    0.0000    0.0000 C.ar    1  UNL1        0.0017
@<TRIPOS>BOND
     1     1     2    1
     2     2     3   ar
     3     3     4   ar
     4     4     5    1
     5     4     6   ar
     6     6     7   ar
     7     7     8   ar
     8     2     8   ar
     9     7     9    1
    10     9    10   ar
    11    10    11   ar
    12    11    12   ar
    13    12    13   ar
    14    13    14   ar
    15     9    14   ar
@<TRIPOS>MOLECULE
*****
 14 15 0 0 0
SMALL
GASTEIGER

@<TRIPOS>ATOM
      1 O           0.0000    0.0000    0.0000 O.2     1  UNL1       -0.2375
      2 S           0.0000    0.0000    0.0000 S.3     1  UNL1        0.1564
      3 C           0.0000    0.0000    0.0000 C.2     1  UNL1        0.1096
      4 C           0.0000    0.0000    0.0000 C.3     1  UNL1        0.0888
      5 C           0.0000    0.0000    0.0000 C.3     1  UNL1        0.0125
      6 C           0.0000    0.0000    0.0000 C.3     1  UNL1        0.0012
      7 C           0.0000    0.0000    0.0000 C.3     1  UNL1        0.0081
      8 C           0.0000    0.0000    0.0000 C.3     1  UNL1        0.0114
      9 C           0.0000    0.0000    0.0000 C.3     1  UNL1        0.0008
     10 C           0.0000    0.0000    0.0000 C.3     1  UNL1        0.0008
     11 C           0.0000    0.0000    0.0000 C.3     1  UNL1        0.0649
     12 C           0.0000    0.0000    0.0000 C.2     1  UNL1        0.1550
     13 O           0.0000    0.0000    0.0000 O.2     1  UNL1       -0.2957
     14 CL          0.0000    0.0000    0.0000 Cl      1  UNL1       -0.0763
@<TRIPOS>BOND
     1     1     2    2
     2     2     3    2
     3     3     4    1
     4     4     5    1
     5     5     6    1
     6     6     7    1
     7     7     8    1
     8     4     8    1
     9     8     9    1
    10     8    10    1
    11     7    11    1
    12    11    12    1
    13     4    12    1
    14    12    13    2
    15     3    14    1
@<TRIPOS>MOLECULE
*****
 16 18 0 0 0
SMALL
GASTEIGER

@<TRIPOS>ATOM
      1 N           0.0000    0.0000    0.0000 N.2     1  UNL1       -0.3277
      2 N           0.0000    0.0000    0.0000 N.2     1  UNL1       -0.0074
      3 N           0.0000    0.0000    0.0000 N.2     1  UNL1        0.1381
      4 C           0.0000    0.0000    0.0000 C.ar    1  UNL1        0.2655
      5 N           0.0000    0.0000    0.0000 N.ar    1  UNL1       -0.1185
      6 N           0.0000    0.0000    0.0000 N.ar    1  UNL1       -0.1071
      7 N           0.0000    0.0000    0.0000 N.ar    1  UNL1       -0.0210
      8 N           0.0000    0.0000    0.0000 N.ar    1  UNL1       -0.0210
      9 N           0.0000    0.0000    0.0000 N.ar    1  UNL1       -0.1060
     10 C           0.0000    0.0000    0.0000 C.ar    1  UNL1        0.2079
     11 C           0.0000    0.0000    0.0000 C.ar    1  UNL1        0.0426
     12 C           0.0000    0.0000    0.0000 C.ar    1  UNL1        0.0475
     13 C           0.0000    0.0000    0.0000 C.ar    1  UNL1        0.0034
     14 C           0.0000    0.0000    0.0000 C.ar    1  UNL1        0.0001
     15 C           0.0000    0.0000    0.0000 C.ar    1  UNL1        0.0001
     16 C           0.0000    0.0000    0.0000 C.ar    1  UNL1        0.0033
@<TRIPOS>BOND
     1     1     2    2
     2     2     3    2
     3     3     4    1
     4     4     5   ar
     5     5     6   ar
     6     6     7   ar
     7     7     8   ar
     8     8     9   ar
     9     9    10   ar
    10     6    10   ar
    11    10    11   ar
    12    11    12   ar
    13     4    12   ar
    14    12    13   ar
    15    13    14   ar
    16    14    15   ar
    17    15    16   ar
    18    11    16   ar
@<TRIPOS>MOLECULE
*****
 13 13 0 0 0
SMALL
GASTEIGER

@<TRIPOS>ATOM
      1 S           0.0000    0.0000    0.0000 S.3     1  UNL1       -0.7756
      2 C           0.0000    0.0000    0.0000 C.2     1  UNL1       -0.2573
      3 S           0.0000    0.0000    0.0000 S.2     1  UNL1       -0.1101
      4 N           0.0000    0.0000    0.0000 N.am    1  UNL1       -0.5555
      5 S           0.0000    0.0000    0.0000 S.O2    1  UNL1       -0.0589
      6 O           0.0000    0.0000    0.0000 O.2     1  UNL1       -0.1842
      7 O           0.0000    0.0000    0.0000 O.2     1  UNL1       -0.1842
      8 C           0.0000    0.0000    0.0000 C.ar    1  UNL1        0.0892
      9 C           0.0000    0.0000    0.0000 C.ar    1  UNL1        0.0169
     10 C           0.0000    0.0000    0.0000 C.ar    1  UNL1        0.0013
     11 C           0.0000    0.0000    0.0000 C.ar    1  UNL1        0.0001
     12 C           0.0000    0.0000    0.0000 C.ar    1  UNL1        0.0013
     13 C           0.0000    0.0000    0.0000 C.ar    1  UNL1        0.0169
@<TRIPOS>BOND
     1     1     2    1
     2     2     3    2
     3     2     4    1
     4     4     5    1
     5     5     6    2
     6     5     7    2
     7     5     8    1
     8     8     9   ar
     9     9    10   ar
    10    10    11   ar
    11    11    12   ar
    12    12    13   ar
    13     8    13   ar
@<TRIPOS>MOLECULE
*****
 10 10 0 0 0
SMALL
GASTEIGER

@<TRIPOS>ATOM
      1 C           0.0000    0.0000    0.0000 C.2     1  UNL1       -0.2277
      2 N           0.0000    0.0000    0.0000 N.1     1  UNL1       -0.2656
      3 C           0.0000    0.0000    0.0000 C.ar    1  UNL1        0.3088
      4 C           0.0000    0.0000    0.0000 C.ar    1  UNL1        0.0923
      5 C           0.0000    0.0000    0.0000 C.ar    1  UNL1        0.0923
      6 C           0.0000    0.0000    0.0000 C.ar    1  UNL1        0.3088
      7 C           0.0000    0.0000    0.0000 C.ar    1  UNL1        0.0923
      8 C           0.0000    0.0000    0.0000 C.ar    1  UNL1        0.0923
      9 N           0.0000    0.0000    0.0000 N.1     1  UNL1       -0.2656
     10 C           0.0000    0.0000    0.0000 C.2     1  UNL1       -0.2277
@<TRIPOS>BOND
     1     1     2    3
     2     2     3    1
     3     3     4   ar
     4     4     5   ar
     5     5     6   ar
     6     6     7   ar
     7     7     8   ar
     8     3     8   ar
     9     6     9    1
    10     9    10    3
@<TRIPOS>MOLECULE
*****
 15 14 0 0 0
SMALL
GASTEIGER

@<TRIPOS>ATOM
      1 C           0.0000    0.0000    0.0000 C.3     1  UNL1        0.1201
      2 N           0.0000    0.0000    0.0000 N.am    1  UNL1       -0.2306
      3 C           0.0000    0.0000    0.0000 C.2     1  UNL1        0.3986
      4 O           0.0000    0.0000    0.0000 O.2     1  UNL1       -0.2604
      5 H           0.0000    0.0000    0.0000 H       1  UNL1        0.6851
      6 C           0.0000    0.0000    0.0000 C.3     1  UNL1        0.1513
      7 C           0.0000    0.0000    0.0000 C.3     1  UNL1        0.0315
      8 C           0.0000    0.0000    0.0000 C.3     1  UNL1        0.1513
      9 C           0.0000    0.0000    0.0000 C.2     1  UNL1        0.3986
     10 O           0.0000    0.0000    0.0000 O.2     1  UNL1       -0.2604
     11 H           0.0000    0.0000    0.0000 H       1  UNL1        0.6851
     12 N           0.0000    0.0000    0.0000 N.am    1  UNL1       -0.2306
     13 C           0.0000    0.0000    0.0000 C.3     1  UNL1        0.1201
     14 C           0.0000    0.0000    0.0000 C.3     1  UNL1        0.1201
     15 C           0.0000    0.0000    0.0000 C.3     1  UNL1        0.1201
@<TRIPOS>BOND
     1     1     2    1
     2     2     3   am
     3     3     4    2
     4     4     5    1
     5     3     6    1
     6     6     7    1
     7     7     8    1
     8     8     9    1
     9     9    10    2
    10    10    11    1
    11     9    12   am
    12    12    13    1
    13    12    14    1
    14     2    15    1
@<TRIPOS>MOLECULE
*****
 13 14 0 0 0
SMALL
GASTEIGER

@<TRIPOS>ATOM
      1 O           0.0000    0.0000    0.0000 O.2     1  UNL1       -0.3119
      2 C           0.0000    0.0000    0.0000 C.2     1  UNL1        0.0979
      3 N           0.0000    0.0000    0.0000 N.am    1  UNL1       -0.5021
      4 S           0.0000    0.0000    0.0000 S.O2    1  UNL1       -0.0557
      5 O           0.0000    0.0000    0.0000 O.2     1  UNL1       -0.1841
      6 O           0.0000    0.0000    0.0000 O.2     1  UNL1       -0.1841
      7 C           0.0000    0.0000    0.0000 C.ar    1  UNL1        0.0936
      8 C           0.0000    0.0000    0.0000 C.ar    1  UNL1        0.0709
      9 C           0.0000    0.0000    0.0000 C.ar    1  UNL1        0.1981
     10 O           0.0000    0.0000    0.0000 O.3     1  UNL1       -0.2865
     11 C           0.0000    0.0000    0.0000 C.ar    1  UNL1        0.0421
     12 C           0.0000    0.0000    0.0000 C.ar    1  UNL1        0.0046
     13 C           0.0000    0.0000    0.0000 C.ar    1  UNL1        0.0172
@<TRIPOS>BOND
     1     1     2    2
     2     2     3    1
     3     3     4    1
     4     4     5    2
     5     4     6    2
     6     4     7    1
     7     7     8   ar
     8     2     8    1
     9     8     9   ar
    10     9    10    1
    11     9    11   ar
    12    11    12   ar
    13    12    13   ar
    14     7    13   ar
@<TRIPOS>MOLECULE
*****
 9 8 0 0 0
SMALL
GASTEIGER

@<TRIPOS>ATOM
      1 N           0.0000    0.0000    0.0000 N.2     1  UNL1       -0.3571
      2 N           0.0000    0.0000    0.0000 N.2     1  UNL1       -0.0801
      3 C           0.0000    0.0000    0.0000 C.2     1  UNL1        0.6988
      4 N           0.0000    0.0000    0.0000 N.pl3   1  UNL1        0.1670
      5 O           0.0000    0.0000    0.0000 O.2     1  UNL1        0.0484
      6 O           0.0000    0.0000    0.0000 O.co2   1  UNL1       -0.5705
      7 C           0.0000    0.0000    0.0000 C.2     1  UNL1        0.5437
      8 O           0.0000    0.0000    0.0000 O.co2   1  UNL1       -0.2251
      9 O           0.0000    0.0000    0.0000 O.co2   1  UNL1       -0.2251
@<TRIPOS>BOND
     1     1     2    2
     2     2     3    2
     3     3     4    1
     4     4     5    2
     5     4     6    1
     6     3     7    1
     7     7     8   ar
     8     7     9   ar
@<TRIPOS>MOLECULE
*****
 10 10 0 0 0
SMALL
GASTEIGER

@<TRIPOS>ATOM
      1 C           0.0000    0.0000    0.0000 C.3     1  UNL1        0.1163
      2 C           0.0000    0.0000    0.0000 C.2     1  UNL1        0.2862
      3 C           0.0000    0.0000    0.0000 C.2     1  UNL1        0.1231
      4 C           0.0000    0.0000    0.0000 C.3     1  UNL1        0.2883
      5 N           0.0000    0.0000    0.0000 N.4     1  UNL1        0.0574
      6 N           0.0000    0.0000    0.0000 N.4     1  UNL1        0.0783
      7 O           0.0000    0.0000    0.0000 O.co2   1  UNL1       -0.5634
      8 O           0.0000    0.0000    0.0000 O.co2   1  UNL1       -0.5678
      9 C           0.0000    0.0000    0.0000 C.3     1  UNL1        0.0908
     10 C           0.0000    0.0000    0.0000 C.3     1  UNL1        0.0908
@<TRIPOS>BOND
     1     1     2    1
     2     2     3    2
     3     3     4    1
     4     4     5    1
     5     5     6    2
     6     2     6    1
     7     6     7    1
     8     5     8    1
     9     4     9    1
    10     4    10    1
@<TRIPOS>MOLECULE
*****
 14 15 0 0 0
SMALL
GASTEIGER

@<TRIPOS>ATOM
      1 O           0.0000    0.0000    0.0000 O.2     1  UNL1       -0.2724
      2 C           0.0000    0.0000    0.0000 C.2     1  UNL1        0.2325
      3 N           0.0000    0.0000    0.0000 N.am    1  UNL1       -0.5446
      4 C           0.0000    0.0000    0.0000 C.2     1  UNL1        0.1264
      5 O           0.0000    0.0000    0.0000 O.2     1  UNL1       -0.3116
      6 C           0.0000    0.0000    0.0000 C.3     1  UNL1        0.3041
      7 O           0.0000    0.0000    0.0000 O.3     1  UNL1       -0.4376
      8 C           0.0000    0.0000    0.0000 C.2     1  UNL1        0.3099
      9 O           0.0000    0.0000    0.0000 O.2     1  UNL1       -0.2667
     10 N           0.0000    0.0000    0.0000 N.am    1  UNL1       -0.1226
     11 C           0.0000    0.0000    0.0000 C.2     1  UNL1        0.3330
     12 O           0.0000    0.0000    0.0000 O.2     1  UNL1       -0.2502
     13 N           0.0000    0.0000    0.0000 N.am    1  UNL1       -0.2207
     14 C           0.0000    0.0000    0.0000 C.3     1  UNL1        0.1206
@<TRIPOS>BOND
     1     1     2    2
     2     2     3    1
     3     3     4    1
     4     4     5    2
     5     4     6    1
     6     6     7    1
     7     2     7    1
     8     6     8    1
     9     8     9    2
    10     8    10   am
    11    10    11   am
    12    11    12    2
    13    11    13   am
    14     6    13    1
    15    13    14    1
@<TRIPOS>MOLECULE
*****
 17 18 0 0 0
SMALL
GASTEIGER

@<TRIPOS>ATOM
      1 N           0.0000    0.0000    0.0000 N.pl3   1  UNL1       -0.1281
      2 C           0.0000    0.0000    0.0000 C.ar    1  UNL1        0.0892
      3 C           0.0000    0.0000    0.0000 C.ar    1  UNL1        0.0193
      4 C           0.0000    0.0000    0.0000 C.ar    1  UNL1        0.0183
      5 C           0.0000    0.0000    0.0000 C.ar    1  UNL1        0.0894
      6 C           0.0000    0.0000    0.0000 C.ar    1  UNL1        0.0183
      7 C           0.0000    0.0000    0.0000 C.ar    1  UNL1        0.0193
      8 S           0.0000    0.0000    0.0000 S.O2    1  UNL1       -0.0568
      9 O           0.0000    0.0000    0.0000 O.2     1  UNL1       -0.1841
     10 O           0.0000    0.0000    0.0000 O.2     1  UNL1       -0.1841
     11 N           0.0000    0.0000    0.0000 N.pl3   1  UNL1       -0.5179
     12 C           0.0000    0.0000    0.0000 C.ar    1  UNL1        0.0161
     13 N           0.0000    0.0000    0.0000 N.ar    1  UNL1       -0.1014
     14 O           0.0000    0.0000    0.0000 O.2     1  UNL1       -0.3596
     15 C           0.0000    0.0000    0.0000 C.ar    1  UNL1        0.1529
     16 C           0.0000    0.0000    0.0000 C.ar    1  UNL1        0.0338
     17 C           0.0000    0.0000    0.0000 C.3     1  UNL1        0.0753
@<TRIPOS>BOND
     1     1     2    1
     2     2     3   ar
     3     3     4   ar
     4     4     5   ar
     5     5     6   ar
     6     6     7   ar
     7     2     7   ar
     8     5     8    1
     9     8     9    2
    10     8    10    2
    11     8    11    1
    12    11    12    1
    13    12    13   ar
    14    13    14   ar
    15    14    15   ar
    16    15    16   ar
    17    12    16   ar
    18    15    17    1
@<TRIPOS>MOLECULE
*****
 18 19 0 0 0
SMALL
GASTEIGER

@<TRIPOS>ATOM
      1 C           0.0000    0.0000    0.0000 C.3     1  UNL1        0.0073
      2 C           0.0000    0.0000    0.0000 C.3     1  UNL1        0.0544
      3 C           0.0000    0.0000    0.0000 C.ar    1  UNL1        0.1094
      4 N           0.0000    0.0000    0.0000 N.ar    1  UNL1       -0.1471
      5 N           0.0000    0.0000    0.0000 N.ar    1  UNL1       -0.1653
      6 C           0.0000    0.0000    0.0000 C.ar    1  UNL1        0.0278
      7 S           0.0000    0.0000    0.0000 S.2     1  UNL1       -0.0738
      8 N           0.0000    0.0000    0.0000 N.pl3   1  UNL1       -0.5138
      9 S           0.0000    0.0000    0.0000 S.O2    1  UNL1       -0.0565
     10 O           0.0000    0.0000    0.0000 O.2     1  UNL1       -0.1841
     11 O           0.0000    0.0000    0.0000 O.2     1  UNL1       -0.1841
     12 C           0.0000    0.0000    0.0000 C.ar    1  UNL1        0.0894
     13 C           0.0000    0.0000    0.0000 C.ar    1  UNL1        0.0183
     14 C           0.0000    0.0000    0.0000 C.ar    1  UNL1        0.0193
     15 C           0.0000    0.0000    0.0000 C.ar    1  UNL1        0.0892
     16 C           0.0000    0.0000    0.0000 C.ar    1  UNL1        0.0193
     17 C           0.0000    0.0000    0.0000 C.ar    1  UNL1        0.0183
     18 N           0.0000    0.0000    0.0000 N.pl3   1  UNL1       -0.1281
@<TRIPOS>BOND
     1     1     2    1
     2     2     3    1
     3     3     4   ar
     4     4     5   ar
     5     5     6   ar
     6     6     7   ar
     7     3     7   ar
     8     6     8    1
     9     8     9    1
    10     9    10    2
    11     9    11    2
    12     9    12    1
    13    12    13   ar
    14    13    14   ar
    15    14    15   ar
    16    15    16   ar
    17    16    17   ar
    18    12    17   ar
    19    15    18    1
@<TRIPOS>MOLECULE
*****
 15 16 0 0 0
SMALL
GASTEIGER

@<TRIPOS>ATOM
      1 N           0.0000    0.0000    0.0000 N.2     1  UNL1       -0.3633
      2 N           0.0000    0.0000    0.0000 N.2     1  UNL1       -0.1502
      3 C           0.0000    0.0000    0.0000 C.2     1  UNL1        0.4510
      4 C           0.0000    0.0000    0.0000 C.2     1  UNL1        0.2662
      5 O           0.0000    0.0000    0.0000 O.2     1  UNL1       -0.2831
      6 C           0.0000    0.0000    0.0000 C.3     1  UNL1        0.1144
      7 C           0.0000    0.0000    0.0000 C.3     1  UNL1        0.0154
      8 C           0.0000    0.0000    0.0000 C.2     1  UNL1        0.1566
      9 O           0.0000    0.0000    0.0000 O.2     1  UNL1       -0.2956
     10 C           0.0000    0.0000    0.0000 C.3     1  UNL1        0.0588
     11 C           0.0000    0.0000    0.0000 C.3     1  UNL1        0.0206
     12 C           0.0000    0.0000    0.0000 C.3     1  UNL1        0.0013
     13 C           0.0000    0.0000    0.0000 C.3     1  UNL1        0.0000
     14 C           0.0000    0.0000    0.0000 C.3     1  UNL1        0.0004
     15 C           0.0000    0.0000    0.0000 C.3     1  UNL1        0.0074
@<TRIPOS>BOND
     1     1     2    2
     2     2     3    2
     3     3     4    1
     4     4     5    2
     5     4     6    1
     6     6     7    1
     7     6     8    1
     8     8     9    2
     9     8    10    1
    10    10    11    1
    11     6    11    1
    12    11    12    1
    13    12    13    1
    14    13    14    1
    15    14    15    1
    16    10    15    1
@<TRIPOS>MOLECULE
*****
 16 17 0 0 0
SMALL
GASTEIGER

@<TRIPOS>ATOM
      1 O           0.0000    0.0000    0.0000 O.co2   1  UNL1       -0.6187
      2 N           0.0000    0.0000    0.0000 N.ar    1  UNL1       -0.1516
      3 C           0.0000    0.0000    0.0000 C.ar    1  UNL1        0.3081
      4 C           0.0000    0.0000    0.0000 C.ar    1  UNL1        0.1500
      5 C           0.0000    0.0000    0.0000 C.ar    1  UNL1        0.2764
      6 C           0.0000    0.0000    0.0000 C.ar    1  UNL1        0.1500
      7 C           0.0000    0.0000    0.0000 C.ar    1  UNL1        0.3081
      8 N           0.0000    0.0000    0.0000 N.4     1  UNL1       -0.0462
      9 N           0.0000    0.0000    0.0000 N.2     1  UNL1        0.0171
     10 C           0.0000    0.0000    0.0000 C.ar    1  UNL1        0.1485
     11 C           0.0000    0.0000    0.0000 C.ar    1  UNL1        0.0251
     12 C           0.0000    0.0000    0.0000 C.ar    1  UNL1        0.0017
     13 C           0.0000    0.0000    0.0000 C.ar    1  UNL1        0.0001
     14 C           0.0000    0.0000    0.0000 C.ar    1  UNL1        0.0017
     15 C           0.0000    0.0000    0.0000 C.ar    1  UNL1        0.0251
     16 O           0.0000    0.0000    0.0000 O.co2   1  UNL1       -0.5955
@<TRIPOS>BOND
     1     1     2    1
     2     2     3   ar
     3     3     4   ar
     4     4     5   ar
     5     5     6   ar
     6     6     7   ar
     7     2     7   ar
     8     5     8    1
     9     8     9    2
    10     9    10    1
    11    10    11   ar
    12    11    12   ar
    13    12    13   ar
    14    13    14   ar
    15    14    15   ar
    16    10    15   ar
    17     8    16    1
@<TRIPOS>MOLECULE
*****
 16 17 0 0 0
SMALL
GASTEIGER

@<TRIPOS>ATOM
      1 N           0.0000    0.0000    0.0000 N.2     1  UNL1       -0.3278
      2 N           0.0000    0.0000    0.0000 N.2     1  UNL1       -0.0090
      3 N           0.0000    0.0000    0.0000 N.2     1  UNL1        0.1168
      4 C           0.0000    0.0000    0.0000 C.ar    1  UNL1        0.1646
      5 C           0.0000    0.0000    0.0000 C.ar    1  UNL1        0.0322
      6 C           0.0000    0.0000    0.0000 C.ar    1  UNL1        0.0711
      7 C           0.0000    0.0000    0.0000 C.ar    1  UNL1        0.2288
      8 C           0.0000    0.0000    0.0000 C.ar    1  UNL1        0.1002
      9 C           0.0000    0.0000    0.0000 C.ar    1  UNL1        0.0349
     10 C           0.0000    0.0000    0.0000 C.ar    1  UNL1        0.1826
     11 N           0.0000    0.0000    0.0000 N.pl3   1  UNL1       -0.1067
     12 N           0.0000    0.0000    0.0000 N.ar    1  UNL1       -0.1498
     13 C           0.0000    0.0000    0.0000 C.ar    1  UNL1        0.4149
     14 N           0.0000    0.0000    0.0000 N.ar    1  UNL1       -0.1706
     15 H           0.0000    0.0000    0.0000 H       1  UNL1        0.4566
     16 N           0.0000    0.0000    0.0000 N.pl3   1  UNL1       -0.0387
@<TRIPOS>BOND
     1     1     2    2
     2     2     3    2
     3     3     4    1
     4     4     5   ar
     5     5     6   ar
     6     6     7   ar
     7     7     8   ar
     8     8     9   ar
     9     4     9   ar
    10     8    10   ar
    11    10    11    1
    12    10    12   ar
    13    12    13   ar
    14    13    14   ar
    15    14    15    1
    16     7    14   ar
    17    13    16    1
@<TRIPOS>MOLECULE
*****
 16 16 0 0 0
SMALL
GASTEIGER

@<TRIPOS>ATOM
      1 C           0.0000    0.0000    0.0000 C.3     1  UNL1        0.2505
      2 O           0.0000    0.0000    0.0000 O.3     1  UNL1       -0.4860
      3 C           0.0000    0.0000    0.0000 C.2     1  UNL1        0.0867
      4 S           0.0000    0.0000    0.0000 S.2     1  UNL1       -0.0353
      5 N           0.0000    0.0000    0.0000 N.am    1  UNL1       -0.4474
      6 N           0.0000    0.0000    0.0000 N.am    1  UNL1       -0.2073
      7 C           0.0000    0.0000    0.0000 C.2     1  UNL1        0.2620
      8 N           0.0000    0.0000    0.0000 N.pl3   1  UNL1       -0.1904
      9 C           0.0000    0.0000    0.0000 C.3     1  UNL1        0.2532
     10 C           0.0000    0.0000    0.0000 C.3     1  UNL1        0.2532
     11 C           0.0000    0.0000    0.0000 C.3     1  UNL1        0.1705
     12 N           0.0000    0.0000    0.0000 N.am    1  UNL1       -0.1590
     13 C           0.0000    0.0000    0.0000 C.2     1  UNL1        0.4042
     14 O           0.0000    0.0000    0.0000 O.2     1  UNL1       -0.2226
     15 C           0.0000    0.0000    0.0000 C.3     1  UNL1        0.0339
     16 C           0.0000    0.0000    0.0000 C.3     1  UNL1        0.0339
@<TRIPOS>BOND
     1     1     2    1
     2     2     3    1
     3     3     4    2
     4     3     5    1
     5     5     6    1
     6     6     7    2
     7     7     8    1
     8     8     9    1
     9     8    10    1
    10     7    11    1
    11    11    12    1
    12    12    13   am
    13     6    13   am
    14    13    14    2
    15    11    15    1
    16    11    16    1
@<TRIPOS>MOLECULE
*****
 13 13 0 0 0
SMALL
GASTEIGER

@<TRIPOS>ATOM
      1 O           0.0000    0.0000    0.0000 O.co2   1  UNL1       -0.5530
      2 N           0.0000    0.0000    0.0000 N.pl3   1  UNL1        0.1947
      3 O           0.0000    0.0000    0.0000 O.2     1  UNL1        0.0698
      4 N           0.0000    0.0000    0.0000 N.pl3   1  UNL1        0.0945
      5 C           0.0000    0.0000    0.0000 C.ar    1  UNL1        0.1378
      6 N           0.0000    0.0000    0.0000 N.ar    1  UNL1       -0.1497
      7 N           0.0000    0.0000    0.0000 N.ar    1  UNL1       -0.1497
      8 C           0.0000    0.0000    0.0000 C.ar    1  UNL1        0.1378
      9 N           0.0000    0.0000    0.0000 N.ar    1  UNL1       -0.5881
     10 N           0.0000    0.0000    0.0000 N.pl3   1  UNL1        0.0945
     11 N           0.0000    0.0000    0.0000 N.pl3   1  UNL1        0.1947
     12 O           0.0000    0.0000    0.0000 O.2     1  UNL1        0.0698
     13 O           0.0000    0.0000    0.0000 O.co2   1  UNL1       -0.5530
@<TRIPOS>BOND
     1     1     2    1
     2     2     3    2
     3     2     4    1
     4     4     5    1
     5     5     6   ar
     6     6     7   ar
     7     7     8   ar
     8     8     9   ar
     9     5     9   ar
    10     8    10    1
    11    10    11    1
    12    11    12    2
    13    11    13    1
@<TRIPOS>MOLECULE
*****
 20 22 0 0 0
SMALL
GASTEIGER

@<TRIPOS>ATOM
      1 S           0.0000    0.0000    0.0000 S.3     1  UNL1       -0.7324
      2 P           0.0000    0.0000    0.0000 P.3     1  UNL1       -0.0839
      3 S           0.0000    0.0000    0.0000 S.3     1  UNL1       -0.1044
      4 C           0.0000    0.0000    0.0000 C.ar    1  UNL1        0.0283
      5 C           0.0000    0.0000    0.0000 C.ar    1  UNL1        0.0064
      6 C           0.0000    0.0000    0.0000 C.ar    1  UNL1        0.0005
      7 C           0.0000    0.0000    0.0000 C.ar    1  UNL1        0.0000
      8 C           0.0000    0.0000    0.0000 C.ar    1  UNL1        0.0005
      9 C           0.0000    0.0000    0.0000 C.ar    1  UNL1        0.0064
     10 S           0.0000    0.0000    0.0000 S.3     1  UNL1       -0.1216
     11 P           0.0000    0.0000    0.0000 P.3     1  UNL1       -0.0839
     12 S           0.0000    0.0000    0.0000 S.3     1  UNL1       -0.1216
     13 S           0.0000    0.0000    0.0000 S.3     1  UNL1       -0.7324
     14 S           0.0000    0.0000    0.0000 S.3     1  UNL1       -0.1044
     15 C           0.0000    0.0000    0.0000 C.ar    1  UNL1        0.0283
     16 C           0.0000    0.0000    0.0000 C.ar    1  UNL1        0.0064
     17 C           0.0000    0.0000    0.0000 C.ar    1  UNL1        0.0005
     18 C           0.0000    0.0000    0.0000 C.ar    1  UNL1        0.0000
     19 C           0.0000    0.0000    0.0000 C.ar    1  UNL1        0.0005
     20 C           0.0000    0.0000    0.0000 C.ar    1  UNL1        0.0064
@<TRIPOS>BOND
     1     1     2    1
     2     2     3    1
     3     3     4    1
     4     4     5   ar
     5     5     6   ar
     6     6     7   ar
     7     7     8   ar
     8     8     9   ar
     9     4     9   ar
    10     2    10    1
    11    10    11    1
    12    11    12    1
    13     2    12    1
    14    11    13    1
    15    11    14    1
    16    14    15    1
    17    15    16   ar
    18    16    17   ar
    19    17    18   ar
    20    18    19   ar
    21    19    20   ar
    22    15    20   ar
@<TRIPOS>MOLECULE
*****
 19 20 0 0 0
SMALL
GASTEIGER

@<TRIPOS>ATOM
      1 N           0.0000    0.0000    0.0000 N.pl3   1  UNL1       -0.1281
      2 C           0.0000    0.0000    0.0000 C.ar    1  UNL1        0.0892
      3 C           0.0000    0.0000    0.0000 C.ar    1  UNL1        0.0193
      4 C           0.0000    0.0000    0.0000 C.ar    1  UNL1        0.0183
      5 C           0.0000    0.0000    0.0000 C.ar    1  UNL1        0.0894
      6 C           0.0000    0.0000    0.0000 C.ar    1  UNL1        0.0183
      7 C           0.0000    0.0000    0.0000 C.ar    1  UNL1        0.0193
      8 S           0.0000    0.0000    0.0000 S.O2    1  UNL1       -0.0559
      9 O           0.0000    0.0000    0.0000 O.2     1  UNL1       -0.1841
     10 O           0.0000    0.0000    0.0000 O.2     1  UNL1       -0.1841
     11 N           0.0000    0.0000    0.0000 N.pl3   1  UNL1       -0.5049
     12 C           0.0000    0.0000    0.0000 C.ar    1  UNL1        0.0581
     13 N           0.0000    0.0000    0.0000 N.ar    1  UNL1       -0.2544
     14 C           0.0000    0.0000    0.0000 C.ar    1  UNL1        0.0601
     15 C           0.0000    0.0000    0.0000 C.3     1  UNL1        0.0521
     16 C           0.0000    0.0000    0.0000 C.ar    1  UNL1        0.0294
     17 C           0.0000    0.0000    0.0000 C.ar    1  UNL1        0.0601
     18 N           0.0000    0.0000    0.0000 N.ar    1  UNL1       -0.2544
     19 C           0.0000    0.0000    0.0000 C.3     1  UNL1        0.0521
@<TRIPOS>BOND
     1     1     2    1
     2     2     3   ar
     3     3     4   ar
     4     4     5   ar
     5     5     6   ar
     6     6     7   ar
     7     2     7   ar
     8     5     8    1
     9     8     9    2
    10     8    10    2
    11     8    11    1
    12    11    12    1
    13    12    13   ar
    14    13    14   ar
    15    14    15    1
    16    14    16   ar
    17    16    17   ar
    18    17    18   ar
    19    12    18   ar
    20    17    19    1
@<TRIPOS>MOLECULE
*****
 18 19 0 0 0
SMALL
GASTEIGER

@<TRIPOS>ATOM
      1 C           0.0000    0.0000    0.0000 C.3     1  UNL1        0.0029
      2 C           0.0000    0.0000    0.0000 C.3     1  UNL1        0.0422
      3 C           0.0000    0.0000    0.0000 C.3     1  UNL1        0.2662
      4 P           0.0000    0.0000    0.0000 P.3     1  UNL1        0.2581
      5 O           0.0000    0.0000    0.0000 O.2     1  UNL1       -0.2838
      6 N           0.0000    0.0000    0.0000 N.3     1  UNL1       -0.2166
      7 C           0.0000    0.0000    0.0000 C.3     1  UNL1        0.0972
      8 C           0.0000    0.0000    0.0000 C.3     1  UNL1        0.0795
      9 C           0.0000    0.0000    0.0000 C.3     1  UNL1        0.0795
     10 N           0.0000    0.0000    0.0000 N.3     1  UNL1       -0.2166
     11 C           0.0000    0.0000    0.0000 C.3     1  UNL1        0.0972
     12 C           0.0000    0.0000    0.0000 C.3     1  UNL1        0.0177
     13 C           0.0000    0.0000    0.0000 C.3     1  UNL1        0.0015
     14 C           0.0000    0.0000    0.0000 C.3     1  UNL1        0.0015
     15 C           0.0000    0.0000    0.0000 C.3     1  UNL1        0.0177
     16 N           0.0000    0.0000    0.0000 N.2     1  UNL1        0.0974
     17 N           0.0000    0.0000    0.0000 N.2     1  UNL1       -0.0135
     18 N           0.0000    0.0000    0.0000 N.2     1  UNL1       -0.3281
@<TRIPOS>BOND
     1     1     2    1
     2     2     3    1
     3     3     4    1
     4     4     5    2
     5     4     6    1
     6     6     7    1
     7     6     8    1
     8     8     9    1
     9     9    10    1
    10     4    10    1
    11    10    11    1
    12     9    12    1
    13    12    13    1
    14    13    14    1
    15    14    15    1
    16     8    15    1
    17     3    16    1
    18    16    17    2
    19    17    18    2
@<TRIPOS>MOLECULE
*****
 16 15 0 0 0
SMALL
GASTEIGER

@<TRIPOS>ATOM
      1 C           0.0000    0.0000    0.0000 C.2     1  UNL1       -0.2359
      2 N           0.0000    0.0000    0.0000 N.1     1  UNL1       -0.2872
      3 C           0.0000    0.0000    0.0000 C.3     1  UNL1        0.4129
      4 C           0.0000    0.0000    0.0000 C.3     1  UNL1        0.1202
      5 C           0.0000    0.0000    0.0000 C.3     1  UNL1        0.0807
      6 N           0.0000    0.0000    0.0000 N.3     1  UNL1       -0.2719
      7 C           0.0000    0.0000    0.0000 C.3     1  UNL1        0.0807
      8 C           0.0000    0.0000    0.0000 C.3     1  UNL1        0.1202
      9 C           0.0000    0.0000    0.0000 C.3     1  UNL1        0.4129
     10 N           0.0000    0.0000    0.0000 N.1     1  UNL1       -0.2872
     11 C           0.0000    0.0000    0.0000 C.2     1  UNL1       -0.2359
     12 C           0.0000    0.0000    0.0000 C.3     1  UNL1        0.0807
     13 C           0.0000    0.0000    0.0000 C.3     1  UNL1        0.1202
     14 C           0.0000    0.0000    0.0000 C.3     1  UNL1        0.4129
     15 N           0.0000    0.0000    0.0000 N.1     1  UNL1       -0.2872
     16 C           0.0000    0.0000    0.0000 C.2     1  UNL1       -0.2359
@<TRIPOS>BOND
     1     1     2    3
     2     2     3    1
     3     3     4    1
     4     4     5    1
     5     5     6    1
     6     6     7    1
     7     7     8    1
     8     8     9    1
     9     9    10    1
    10    10    11    3
    11     6    12    1
    12    12    13    1
    13    13    14    1
    14    14    15    1
    15    15    16    3
@<TRIPOS>MOLECULE
*****
 20 21 0 0 0
SMALL
GASTEIGER

@<TRIPOS>ATOM
      1 C           0.0000    0.0000    0.0000 C.3     1  UNL1        0.0942
      2 N           0.0000    0.0000    0.0000 N.3     1  UNL1       -0.2460
      3 P           0.0000    0.0000    0.0000 P.3     1  UNL1        0.0521
      4 O           0.0000    0.0000    0.0000 O.co2   1  UNL1       -0.7965
      5 N           0.0000    0.0000    0.0000 N.3     1  UNL1       -0.1153
      6 N           0.0000    0.0000    0.0000 N.3     1  UNL1       -0.1645
      7 C           0.0000    0.0000    0.0000 C.3     1  UNL1        0.1159
      8 P           0.0000    0.0000    0.0000 P.3     1  UNL1        0.0683
      9 N           0.0000    0.0000    0.0000 N.3     1  UNL1       -0.1645
     10 N           0.0000    0.0000    0.0000 N.3     1  UNL1       -0.1153
     11 C           0.0000    0.0000    0.0000 C.3     1  UNL1        0.1159
     12 S           0.0000    0.0000    0.0000 S.3     1  UNL1       -0.6915
     13 O           0.0000    0.0000    0.0000 O.3     1  UNL1       -0.4697
     14 C           0.0000    0.0000    0.0000 C.ar    1  UNL1        0.1417
     15 C           0.0000    0.0000    0.0000 C.ar    1  UNL1        0.0372
     16 C           0.0000    0.0000    0.0000 C.ar    1  UNL1        0.0031
     17 C           0.0000    0.0000    0.0000 C.ar    1  UNL1        0.0002
     18 C           0.0000    0.0000    0.0000 C.ar    1  UNL1        0.0031
     19 C           0.0000    0.0000    0.0000 C.ar    1  UNL1        0.0372
     20 C           0.0000    0.0000    0.0000 C.3     1  UNL1        0.0942
@<TRIPOS>BOND
     1     1     2    1
     2     2     3    1
     3     3     4    1
     4     3     5    1
     5     5     6    1
     6     6     7    1
     7     6     8    1
     8     8     9    1
     9     9    10    1
    10     3    10    1
    11     9    11    1
    12     8    12    1
    13     8    13    1
    14    13    14    1
    15    14    15   ar
    16    15    16   ar
    17    16    17   ar
    18    17    18   ar
    19    18    19   ar
    20    14    19   ar
    21     2    20    1
@<TRIPOS>MOLECULE
*****
 18 19 0 0 0
SMALL
GASTEIGER

@<TRIPOS>ATOM
      1 O           0.0000    0.0000    0.0000 O.3     1  UNL1       -0.2764
      2 C           0.0000    0.0000    0.0000 C.ar    1  UNL1        0.3047
      3 C           0.0000    0.0000    0.0000 C.ar    1  UNL1        0.2468
      4 O           0.0000    0.0000    0.0000 O.3     1  UNL1       -0.2827
      5 C           0.0000    0.0000    0.0000 C.ar    1  UNL1        0.1225
      6 C           0.0000    0.0000    0.0000 C.ar    1  UNL1        0.3053
      7 N           0.0000    0.0000    0.0000 N.ar    1  UNL1       -0.1489
      8 C           0.0000    0.0000    0.0000 C.ar    1  UNL1        0.3474
      9 C           0.0000    0.0000    0.0000 C.ar    1  UNL1        0.3474
     10 N           0.0000    0.0000    0.0000 N.ar    1  UNL1       -0.1489
     11 O           0.0000    0.0000    0.0000 O.co2   1  UNL1       -0.6186
     12 C           0.0000    0.0000    0.0000 C.ar    1  UNL1        0.3053
     13 C           0.0000    0.0000    0.0000 C.ar    1  UNL1        0.1225
     14 C           0.0000    0.0000    0.0000 C.ar    1  UNL1        0.2468
     15 C           0.0000    0.0000    0.0000 C.ar    1  UNL1        0.3047
     16 O           0.0000    0.0000    0.0000 O.3     1  UNL1       -0.2764
     17 O           0.0000    0.0000    0.0000 O.3     1  UNL1       -0.2827
     18 O           0.0000    0.0000    0.0000 O.co2   1  UNL1       -0.6186
@<TRIPOS>BOND
     1     1     2    1
     2     2     3   ar
     3     3     4    1
     4     3     5   ar
     5     5     6   ar
     6     6     7   ar
     7     7     8   ar
     8     2     8   ar
     9     8     9    1
    10     9    10   ar
    11    10    11    1
    12    10    12   ar
    13    12    13   ar
    14    13    14   ar
    15    14    15   ar
    16     9    15   ar
    17    15    16    1
    18    14    17    1
    19     7    18    1
@<TRIPOS>MOLECULE
*****
 19 19 0 0 0
SMALL
GASTEIGER

@<TRIPOS>ATOM
      1 C           0.0000    0.0000    0.0000 C.3     1  UNL1        0.1615
      2 N           0.0000    0.0000    0.0000 N.ar    1  UNL1       -0.1719
      3 N           0.0000    0.0000    0.0000 N.ar    1  UNL1        0.0002
      4 N           0.0000    0.0000    0.0000 N.ar    1  UNL1        0.1384
      5 N           0.0000    0.0000    0.0000 N.ar    1  UNL1       -0.0159
      6 C           0.0000    0.0000    0.0000 C.ar    1  UNL1        0.3405
      7 C           0.0000    0.0000    0.0000 C.3     1  UNL1        0.2313
      8 C           0.0000    0.0000    0.0000 C.3     1  UNL1        0.0342
      9 C           0.0000    0.0000    0.0000 C.3     1  UNL1        0.0026
     10 C           0.0000    0.0000    0.0000 C.3     1  UNL1        0.0026
     11 C           0.0000    0.0000    0.0000 C.3     1  UNL1        0.0026
     12 N           0.0000    0.0000    0.0000 N.2     1  UNL1       -0.1835
     13 N           0.0000    0.0000    0.0000 N.2     1  UNL1       -0.2645
     14 N           0.0000    0.0000    0.0000 N.pl3   1  UNL1       -0.4382
     15 S           0.0000    0.0000    0.0000 S.O2    1  UNL1       -0.0627
     16 O           0.0000    0.0000    0.0000 O.2     1  UNL1       -0.1875
     17 O           0.0000    0.0000    0.0000 O.2     1  UNL1       -0.1875
     18 C           0.0000    0.0000    0.0000 C.3     1  UNL1        0.1575
     19 C           0.0000    0.0000    0.0000 C.3     1  UNL1        0.4403
@<TRIPOS>BOND
     1     1     2    1
     2     2     3   ar
     3     3     4   ar
     4     4     5   ar
     5     5     6   ar
     6     2     6   ar
     7     6     7    1
     8     7     8    1
     9     8     9    1
    10     8    10    1
    11     8    11    1
    12     7    12    1
    13    12    13    2
    14    13    14    1
    15    14    15    1
    16    15    16    2
    17    15    17    2
    18    15    18    1
    19     5    19    1
@<TRIPOS>MOLECULE
*****
 19 20 0 0 0
SMALL
GASTEIGER

@<TRIPOS>ATOM
      1 O           0.0000    0.0000    0.0000 O.3     1  UNL1       -0.2184
      2 C           0.0000    0.0000    0.0000 C.3     1  UNL1        0.2054
      3 C           0.0000    0.0000    0.0000 C.3     1  UNL1        0.1511
      4 N           0.0000    0.0000    0.0000 N.am    1  UNL1       -0.1936
      5 C           0.0000    0.0000    0.0000 C.2     1  UNL1        0.3358
      6 O           0.0000    0.0000    0.0000 O.2     1  UNL1       -0.2615
      7 C           0.0000    0.0000    0.0000 C.ar    1  UNL1        0.3522
      8 C           0.0000    0.0000    0.0000 C.ar    1  UNL1        0.2836
      9 C           0.0000    0.0000    0.0000 C.3     1  UNL1        0.1162
     10 N           0.0000    0.0000    0.0000 N.ar    1  UNL1       -0.1555
     11 O           0.0000    0.0000    0.0000 O.co2   1  UNL1       -0.6189
     12 C           0.0000    0.0000    0.0000 C.ar    1  UNL1        0.3015
     13 C           0.0000    0.0000    0.0000 C.ar    1  UNL1        0.3018
     14 N           0.0000    0.0000    0.0000 N.ar    1  UNL1       -0.1483
     15 O           0.0000    0.0000    0.0000 O.co2   1  UNL1       -0.6186
     16 C           0.0000    0.0000    0.0000 C.ar    1  UNL1        0.0770
     17 C           0.0000    0.0000    0.0000 C.ar    1  UNL1        0.0066
     18 C           0.0000    0.0000    0.0000 C.ar    1  UNL1        0.0066
     19 C           0.0000    0.0000    0.0000 C.ar    1  UNL1        0.0770
@<TRIPOS>BOND
     1     1     2    1
     2     2     3    1
     3     3     4    1
     4     4     5   am
     5     5     6    2
     6     5     7    1
     7     7     8   ar
     8     8     9    1
     9     8    10   ar
    10    10    11    1
    11    10    12   ar
    12    12    13   ar
    13    13    14   ar
    14     7    14   ar
    15    14    15    1
    16    13    16   ar
    17    16    17   ar
    18    17    18   ar
    19    18    19   ar
    20    12    19   ar
@<TRIPOS>MOLECULE
*****
 15 16 0 0 0
SMALL
GASTEIGER

@<TRIPOS>ATOM
      1 O           0.0000    0.0000    0.0000 O.co2   1  UNL1       -0.5760
      2 N           0.0000    0.0000    0.0000 N.pl3   1  UNL1        0.0809
      3 O           0.0000    0.0000    0.0000 O.2     1  UNL1        0.0415
      4 C           0.0000    0.0000    0.0000 C.ar    1  UNL1        0.2902
      5 C           0.0000    0.0000    0.0000 C.ar    1  UNL1        0.0735
      6 C           0.0000    0.0000    0.0000 C.ar    1  UNL1       -0.0164
      7 C           0.0000    0.0000    0.0000 C.ar    1  UNL1       -0.0979
      8 C           0.0000    0.0000    0.0000 C.ar    1  UNL1        0.0729
      9 C           0.0000    0.0000    0.0000 C.ar    1  UNL1        0.0812
     10 C           0.0000    0.0000    0.0000 C.ar    1  UNL1        0.3561
     11 N           0.0000    0.0000    0.0000 N.ar    1  UNL1       -0.3028
     12 N           0.0000    0.0000    0.0000 N.ar    1  UNL1       -0.5711
     13 N           0.0000    0.0000    0.0000 N.pl3   1  UNL1        0.0996
     14 O           0.0000    0.0000    0.0000 O.2     1  UNL1        0.0431
     15 O           0.0000    0.0000    0.0000 O.co2   1  UNL1       -0.5747
@<TRIPOS>BOND
     1     1     2    1
     2     2     3    2
     3     2     4    1
     4     4     5   ar
     5     5     6   ar
     6     6     7   ar
     7     7     8   ar
     8     8     9   ar
     9     4     9   ar
    10     8    10   ar
    11    10    11   ar
    12    11    12   ar
    13     7    12   ar
    14    10    13    1
    15    13    14    2
    16    13    15    1
@<TRIPOS>MOLECULE
*****
 20 21 0 0 0
SMALL
GASTEIGER

@<TRIPOS>ATOM
      1 N           0.0000    0.0000    0.0000 N.2     1  UNL1       -0.3634
      2 N           0.0000    0.0000    0.0000 N.2     1  UNL1       -0.1511
      3 C           0.0000    0.0000    0.0000 C.2     1  UNL1        0.4426
      4 C           0.0000    0.0000    0.0000 C.2     1  UNL1        0.3512
      5 O           0.0000    0.0000    0.0000 O.2     1  UNL1       -0.2603
      6 N           0.0000    0.0000    0.0000 N.am    1  UNL1       -0.1862
      7 N           0.0000    0.0000    0.0000 N.am    1  UNL1       -0.1950
      8 C           0.0000    0.0000    0.0000 C.2     1  UNL1        0.3508
      9 O           0.0000    0.0000    0.0000 O.2     1  UNL1       -0.2604
     10 C           0.0000    0.0000    0.0000 C.3     1  UNL1        0.1158
     11 C           0.0000    0.0000    0.0000 C.3     1  UNL1        0.0258
     12 C           0.0000    0.0000    0.0000 C.3     1  UNL1        0.0350
     13 C           0.0000    0.0000    0.0000 C.3     1  UNL1        0.1940
     14 C           0.0000    0.0000    0.0000 C.2     1  UNL1        0.3368
     15 O           0.0000    0.0000    0.0000 O.2     1  UNL1       -0.2482
     16 O           0.0000    0.0000    0.0000 O.3     1  UNL1       -0.4546
     17 C           0.0000    0.0000    0.0000 C.3     1  UNL1        0.1363
     18 C           0.0000    0.0000    0.0000 C.3     1  UNL1        0.0437
     19 C           0.0000    0.0000    0.0000 C.3     1  UNL1        0.0437
     20 C           0.0000    0.0000    0.0000 C.3     1  UNL1        0.0437
@<TRIPOS>BOND
     1     1     2    2
     2     2     3    2
     3     3     4    1
     4     4     5    2
     5     4     6   am
     6     6     7    1
     7     7     8   am
     8     3     8    1
     9     8     9    2
    10     7    10    1
    11    10    11    1
    12    11    12    1
    13    12    13    1
    14     6    13    1
    15    13    14    1
    16    14    15    2
    17    14    16    1
    18    16    17    1
    19    17    18    1
    20    17    19    1
    21    17    20    1
@<TRIPOS>MOLECULE
*****
 22 23 0 0 0
SMALL
GASTEIGER

@<TRIPOS>ATOM
      1 N           0.0000    0.0000    0.0000 N.1     1  UNL1       -0.1912
      2 C           0.0000    0.0000    0.0000 C.1     1  UNL1        0.0957
      3 C           0.0000    0.0000    0.0000 C.2     1  UNL1        0.0398
      4 C           0.0000    0.0000    0.0000 C.2     1  UNL1       -0.0956
      5 S           0.0000    0.0000    0.0000 S.3     1  UNL1       -0.7410
      6 N           0.0000    0.0000    0.0000 N.pl3   1  UNL1       -0.2480
      7 C           0.0000    0.0000    0.0000 C.2     1  UNL1        0.0453
      8 C           0.0000    0.0000    0.0000 C.2     1  UNL1        0.0323
      9 C           0.0000    0.0000    0.0000 C.3     1  UNL1        0.0852
     10 C           0.0000    0.0000    0.0000 C.ar    1  UNL1        0.0557
     11 C           0.0000    0.0000    0.0000 C.ar    1  UNL1        0.0025
     12 C           0.0000    0.0000    0.0000 C.ar    1  UNL1        0.0001
     13 C           0.0000    0.0000    0.0000 C.ar    1  UNL1        0.0063
     14 C           0.0000    0.0000    0.0000 C.ar    1  UNL1        0.0749
     15 C           0.0000    0.0000    0.0000 C.ar    1  UNL1        0.2866
     16 N           0.0000    0.0000    0.0000 N.pl3   1  UNL1        0.0806
     17 O           0.0000    0.0000    0.0000 O.2     1  UNL1        0.0415
     18 O           0.0000    0.0000    0.0000 O.co2   1  UNL1       -0.5760
     19 C           0.0000    0.0000    0.0000 C.2     1  UNL1        0.1711
     20 O           0.0000    0.0000    0.0000 O.2     1  UNL1       -0.2916
     21 C           0.0000    0.0000    0.0000 C.3     1  UNL1        0.0770
     22 C           0.0000    0.0000    0.0000 C.3     1  UNL1        0.0489
@<TRIPOS>BOND
     1     1     2    3
     2     2     3    1
     3     3     4    2
     4     4     5    1
     5     4     6    1
     6     6     7    1
     7     7     8    2
     8     8     9    1
     9     3     9    1
    10     9    10    1
    11    10    11   ar
    12    11    12   ar
    13    12    13   ar
    14    13    14   ar
    15    14    15   ar
    16    10    15   ar
    17    15    16    1
    18    16    17    2
    19    16    18    1
    20     8    19    1
    21    19    20    2
    22    19    21    1
    23     7    22    1
@<TRIPOS>MOLECULE
*****
 15 15 0 0 0
SMALL
GASTEIGER

@<TRIPOS>ATOM
      1 N           0.0000    0.0000    0.0000 N.2     1  UNL1       -0.3636
      2 N           0.0000    0.0000    0.0000 N.2     1  UNL1       -0.1573
      3 C           0.0000    0.0000    0.0000 C.2     1  UNL1        0.3854
      4 C           0.0000    0.0000    0.0000 C.2     1  UNL1        0.1665
      5 C           0.0000    0.0000    0.0000 C.2     1  UNL1        0.3036
      6 C           0.0000    0.0000    0.0000 C.2     1  UNL1        0.1543
      7 C           0.0000    0.0000    0.0000 C.2     1  UNL1        0.3417
      8 C           0.0000    0.0000    0.0000 C.2     1  UNL1        0.3442
      9 O           0.0000    0.0000    0.0000 O.2     1  UNL1       -0.2723
     10 N           0.0000    0.0000    0.0000 N.pl3   1  UNL1        0.0848
     11 O           0.0000    0.0000    0.0000 O.2     1  UNL1        0.0416
     12 O           0.0000    0.0000    0.0000 O.co2   1  UNL1       -0.5759
     13 N           0.0000    0.0000    0.0000 N.pl3   1  UNL1        0.0814
     14 O           0.0000    0.0000    0.0000 O.2     1  UNL1        0.0415
     15 O           0.0000    0.0000    0.0000 O.co2   1  UNL1       -0.5760
@<TRIPOS>BOND
     1     1     2    2
     2     2     3    2
     3     3     4    1
     4     4     5    2
     5     5     6    1
     6     6     7    2
     7     7     8    1
     8     3     8    1
     9     8     9    2
    10     7    10    1
    11    10    11    2
    12    10    12    1
    13     5    13    1
    14    13    14    2
    15    13    15    1
@<TRIPOS>MOLECULE
*****
 16 16 0 0 0
SMALL
GASTEIGER

@<TRIPOS>ATOM
      1 N           0.0000    0.0000    0.0000 N.1     1  UNL1        0.2218
      2 N           0.0000    0.0000    0.0000 N.1     1  UNL1        0.1719
      3 C           0.0000    0.0000    0.0000 C.ar    1  UNL1        0.3997
      4 C           0.0000    0.0000    0.0000 C.ar    1  UNL1        0.1685
      5 C           0.0000    0.0000    0.0000 C.ar    1  UNL1        0.3136
      6 N           0.0000    0.0000    0.0000 N.pl3   1  UNL1        0.0823
      7 O           0.0000    0.0000    0.0000 O.2     1  UNL1        0.0415
      8 O           0.0000    0.0000    0.0000 O.co2   1  UNL1       -0.5760
      9 C           0.0000    0.0000    0.0000 C.ar    1  UNL1        0.1950
     10 C           0.0000    0.0000    0.0000 C.ar    1  UNL1        0.2979
     11 C           0.0000    0.0000    0.0000 C.ar    1  UNL1        0.0709
     12 O           0.0000    0.0000    0.0000 O.co2   1  UNL1       -0.8642
     13 N           0.0000    0.0000    0.0000 N.pl3   1  UNL1        0.0810
     14 O           0.0000    0.0000    0.0000 O.2     1  UNL1        0.0415
     15 O           0.0000    0.0000    0.0000 O.co2   1  UNL1       -0.5760
     16 CL          0.0000    0.0000    0.0000 Cl      1  UNL1       -0.0695
@<TRIPOS>BOND
     1     1     2    3
     2     2     3    1
     3     3     4   ar
     4     4     5   ar
     5     5     6    1
     6     6     7    2
     7     6     8    1
     8     5     9   ar
     9     9    10   ar
    10    10    11   ar
    11     3    11   ar
    12    11    12    1
    13    10    13    1
    14    13    14    2
    15    13    15    1
    16     9    16    1
@<TRIPOS>MOLECULE
*****
 24 25 0 0 0
SMALL
GASTEIGER

@<TRIPOS>ATOM
      1 F           0.0000    0.0000    0.0000 F       1  UNL1       -0.1934
      2 C           0.0000    0.0000    0.0000 C.ar    1  UNL1        0.2589
      3 C           0.0000    0.0000    0.0000 C.ar    1  UNL1        0.2582
      4 F           0.0000    0.0000    0.0000 F       1  UNL1       -0.1805
      5 N           0.0000    0.0000    0.0000 N.ar    1  UNL1       -0.1855
      6 C           0.0000    0.0000    0.0000 C.ar    1  UNL1        0.2582
      7 C           0.0000    0.0000    0.0000 C.ar    1  UNL1        0.2589
      8 C           0.0000    0.0000    0.0000 C.ar    1  UNL1        0.3681
      9 N           0.0000    0.0000    0.0000 N.4     1  UNL1        0.0935
     10 N           0.0000    0.0000    0.0000 N.4     1  UNL1        0.0935
     11 C           0.0000    0.0000    0.0000 C.ar    1  UNL1        0.3681
     12 C           0.0000    0.0000    0.0000 C.ar    1  UNL1        0.2589
     13 F           0.0000    0.0000    0.0000 F       1  UNL1       -0.1934
     14 C           0.0000    0.0000    0.0000 C.ar    1  UNL1        0.2582
     15 F           0.0000    0.0000    0.0000 F       1  UNL1       -0.1805
     16 N           0.0000    0.0000    0.0000 N.ar    1  UNL1       -0.1855
     17 C           0.0000    0.0000    0.0000 C.ar    1  UNL1        0.2582
     18 C           0.0000    0.0000    0.0000 C.ar    1  UNL1        0.2589
     19 F           0.0000    0.0000    0.0000 F       1  UNL1       -0.1934
     20 F           0.0000    0.0000    0.0000 F       1  UNL1       -0.1805
     21 O           0.0000    0.0000    0.0000 O.co2   1  UNL1       -0.5626
     22 O           0.0000    0.0000    0.0000 O.co2   1  UNL1       -0.5626
     23 F           0.0000    0.0000    0.0000 F       1  UNL1       -0.1934
     24 F           0.0000    0.0000    0.0000 F       1  UNL1       -0.1805
@<TRIPOS>BOND
     1     1     2    1
     2     2     3   ar
     3     3     4    1
     4     3     5   ar
     5     5     6   ar
     6     6     7   ar
     7     7     8   ar
     8     2     8   ar
     9     8     9    1
    10     9    10    2
    11    10    11    1
    12    11    12   ar
    13    12    13    1
    14    12    14   ar
    15    14    15    1
    16    14    16   ar
    17    16    17   ar
    18    17    18   ar
    19    11    18   ar
    20    18    19    1
    21    17    20    1
    22    10    21    1
    23     9    22    1
    24     7    23    1
    25     6    24    1
@<TRIPOS>MOLECULE
*****
 3 2 0 0 0
SMALL
GASTEIGER

@<TRIPOS>ATOM
      1 O           0.0000    0.0000    0.0000 O.2     1  UNL1       -0.1259
      2 S           0.0000    0.0000    0.0000 S.3     1  UNL1        0.2519
      3 O           0.0000    0.0000    0.0000 O.2     1  UNL1       -0.1259
@<TRIPOS>BOND
     1     1     2    2
     2     2     3    2
@<TRIPOS>MOLECULE
*****
 4 3 0 0 0
SMALL
GASTEIGER

@<TRIPOS>ATOM
      1 O           0.0000    0.0000    0.0000 O.co2   1  UNL1       -0.3905
      2 S           0.0000    0.0000    0.0000 S.3     1  UNL1       -0.0617
      3 O           0.0000    0.0000    0.0000 O.2     1  UNL1       -0.4618
      4 O           0.0000    0.0000    0.0000 O.3     1  UNL1       -0.0860
@<TRIPOS>BOND
     1     1     2    1
     2     2     3    2
     3     2     4    1
@<TRIPOS>MOLECULE
*****
 3 2 0 0 0
SMALL
GASTEIGER

@<TRIPOS>ATOM
      1 N           0.0000    0.0000    0.0000 N.2     1  UNL1       -0.2990
      2 N           0.0000    0.0000    0.0000 N.2     1  UNL1        0.1470
      3 O           0.0000    0.0000    0.0000 O.2     1  UNL1        0.1520
@<TRIPOS>BOND
     1     1     2    2
     2     2     3    2
@<TRIPOS>MOLECULE
*****
 4 3 0 0 0
SMALL
GASTEIGER

@<TRIPOS>ATOM
      1 O           0.0000    0.0000    0.0000 O.co2   1  UNL1       -0.4110
      2 S           0.0000    0.0000    0.0000 S.3     1  UNL1       -0.1954
      3 O           0.0000    0.0000    0.0000 O.2     1  UNL1       -0.4826
      4 O           0.0000    0.0000    0.0000 O.co2   1  UNL1       -0.4110
@<TRIPOS>BOND
     1     1     2    1
     2     2     3    2
     3     2     4    1
@<TRIPOS>MOLECULE
*****
 5 4 0 0 0
SMALL
GASTEIGER

@<TRIPOS>ATOM
      1 O           0.0000    0.0000    0.0000 O.co2   1  UNL1       -0.7041
      2 CL          0.0000    0.0000    0.0000 Cl      1  UNL1        0.2189
      3 O           0.0000    0.0000    0.0000 O.2     1  UNL1       -0.1716
      4 O           0.0000    0.0000    0.0000 O.2     1  UNL1       -0.1716
      5 O           0.0000    0.0000    0.0000 O.2     1  UNL1       -0.1716
@<TRIPOS>BOND
     1     1     2    1
     2     2     3    2
     3     2     4    2
     4     2     5    2
@<TRIPOS>MOLECULE
*****
 7 6 0 0 0
SMALL
GASTEIGER

@<TRIPOS>ATOM
      1 O           0.0000    0.0000    0.0000 O.co2   1  UNL1       -0.3980
      2 S           0.0000    0.0000    0.0000 S.3     1  UNL1       -0.1045
      3 O           0.0000    0.0000    0.0000 O.2     1  UNL1       -0.4687
      4 S           0.0000    0.0000    0.0000 S.3     1  UNL1        0.0102
      5 O           0.0000    0.0000    0.0000 O.2     1  UNL1       -0.1658
      6 O           0.0000    0.0000    0.0000 O.2     1  UNL1       -0.1658
      7 O           0.0000    0.0000    0.0000 O.co2   1  UNL1       -0.7075
@<TRIPOS>BOND
     1     1     2    1
     2     2     3    2
     3     2     4    1
     4     4     5    2
     5     4     6    2
     6     4     7    1
@<TRIPOS>MOLECULE
*****
 15 16 0 0 0
SMALL
GASTEIGER

@<TRIPOS>ATOM
      1 O           0.0000    0.0000    0.0000 O.3     1  UNL1       -0.2080
      2 C           0.0000    0.0000    0.0000 C.3     1  UNL1        0.2853
      3 C           0.0000    0.0000    0.0000 C.ar    1  UNL1        0.3073
      4 N           0.0000    0.0000    0.0000 N.ar    1  UNL1       -0.1537
      5 O           0.0000    0.0000    0.0000 O.co2   1  UNL1       -0.6189
      6 C           0.0000    0.0000    0.0000 C.ar    1  UNL1        0.3015
      7 C           0.0000    0.0000    0.0000 C.ar    1  UNL1        0.0770
      8 C           0.0000    0.0000    0.0000 C.ar    1  UNL1        0.0066
      9 C           0.0000    0.0000    0.0000 C.ar    1  UNL1        0.0066
     10 C           0.0000    0.0000    0.0000 C.ar    1  UNL1        0.0770
     11 C           0.0000    0.0000    0.0000 C.ar    1  UNL1        0.3015
     12 N           0.0000    0.0000    0.0000 N.ar    1  UNL1       -0.1558
     13 O           0.0000    0.0000    0.0000 O.co2   1  UNL1       -0.6189
     14 C           0.0000    0.0000    0.0000 C.ar    1  UNL1        0.2770
     15 C           0.0000    0.0000    0.0000 C.3     1  UNL1        0.1157
@<TRIPOS>BOND
     1     1     2    1
     2     2     3    1
     3     3     4   ar
     4     4     5    1
     5     4     6   ar
     6     6     7   ar
     7     7     8   ar
     8     8     9   ar
     9     9    10   ar
    10    10    11   ar
    11     6    11   ar
    12    11    12   ar
    13    12    13    1
    14    12    14   ar
    15     3    14   ar
    16    14    15    1
@<TRIPOS>MOLECULE
*****
 13 14 0 0 0
SMALL
GASTEIGER

@<TRIPOS>ATOM
      1 N           0.0000    0.0000    0.0000 N.pl3   1  UNL1       -0.6491
      2 H           0.0000    0.0000    0.0000 H       1  UNL1       -0.1273
      3 C           0.0000    0.0000    0.0000 C.ar    1  UNL1        0.1373
      4 O           0.0000    0.0000    0.0000 O.2     1  UNL1       -0.3220
      5 N           0.0000    0.0000    0.0000 N.ar    1  UNL1        0.2301
      6 N           0.0000    0.0000    0.0000 N.ar    1  UNL1        0.0760
      7 C           0.0000    0.0000    0.0000 C.ar    1  UNL1        0.3676
      8 N           0.0000    0.0000    0.0000 N.pl3   1  UNL1       -0.0819
      9 C           0.0000    0.0000    0.0000 C.3     1  UNL1        0.1899
     10 C           0.0000    0.0000    0.0000 C.3     1  UNL1        0.1697
     11 O           0.0000    0.0000    0.0000 O.3     1  UNL1       -0.3497
     12 C           0.0000    0.0000    0.0000 C.3     1  UNL1        0.1697
     13 C           0.0000    0.0000    0.0000 C.3     1  UNL1        0.1899
@<TRIPOS>BOND
     1     1     2    1
     2     1     3    1
     3     3     4   ar
     4     4     5   ar
     5     5     6   ar
     6     6     7   ar
     7     3     7   ar
     8     6     8    1
     9     8     9    1
    10     9    10    1
    11    10    11    1
    12    11    12    1
    13    12    13    1
    14     8    13    1
@<TRIPOS>MOLECULE
*****
 10 10 0 0 0
SMALL
GASTEIGER

@<TRIPOS>ATOM
      1 O           0.0000    0.0000    0.0000 O.2     1  UNL1       -0.3119
      2 C           0.0000    0.0000    0.0000 C.2     1  UNL1        0.0984
      3 C           0.0000    0.0000    0.0000 C.2     1  UNL1        0.0529
      4 C           0.0000    0.0000    0.0000 C.2     1  UNL1        0.1511
      5 C           0.0000    0.0000    0.0000 C.3     1  UNL1        0.0749
      6 O           0.0000    0.0000    0.0000 O.2     1  UNL1       -0.3597
      7 S           0.0000    0.0000    0.0000 S.O2    1  UNL1        0.0698
      8 O           0.0000    0.0000    0.0000 O.2     1  UNL1       -0.1517
      9 O           0.0000    0.0000    0.0000 O.2     1  UNL1       -0.1517
     10 N           0.0000    0.0000    0.0000 N.am    1  UNL1       -0.4720
@<TRIPOS>BOND
     1     1     2    2
     2     2     3    1
     3     3     4    2
     4     4     5    1
     5     4     6    1
     6     6     7    1
     7     7     8    2
     8     7     9    2
     9     7    10    1
    10     2    10    1
@<TRIPOS>MOLECULE
*****
 12 12 0 0 0
SMALL
GASTEIGER

@<TRIPOS>ATOM
      1 CL          0.0000    0.0000    0.0000 Cl      1  UNL1       -0.4465
      2 N           0.0000    0.0000    0.0000 N.3     1  UNL1       -0.0412
      3 S           0.0000    0.0000    0.0000 S.O2    1  UNL1       -0.2083
      4 O           0.0000    0.0000    0.0000 O.2     1  UNL1       -0.2031
      5 O           0.0000    0.0000    0.0000 O.2     1  UNL1       -0.2031
      6 C           0.0000    0.0000    0.0000 C.ar    1  UNL1        0.0685
      7 C           0.0000    0.0000    0.0000 C.ar    1  UNL1        0.0153
      8 C           0.0000    0.0000    0.0000 C.ar    1  UNL1       -0.0030
      9 C           0.0000    0.0000    0.0000 C.ar    1  UNL1       -0.0218
     10 C           0.0000    0.0000    0.0000 C.ar    1  UNL1       -0.0030
     11 C           0.0000    0.0000    0.0000 C.ar    1  UNL1        0.0153
     12 C           0.0000    0.0000    0.0000 C.3     1  UNL1        0.0310
@<TRIPOS>BOND
     1     1     2    1
     2     2     3    1
     3     3     4    2
     4     3     5    2
     5     3     6    1
     6     6     7   ar
     7     7     8   ar
     8     8     9   ar
     9     9    10   ar
    10    10    11   ar
    11     6    11   ar
    12     9    12    1
@<TRIPOS>MOLECULE
*****
 16 17 0 0 0
SMALL
GASTEIGER

@<TRIPOS>ATOM
      1 O           0.0000    0.0000    0.0000 O.3     1  UNL1       -0.2176
      2 C           0.0000    0.0000    0.0000 C.3     1  UNL1        0.2141
      3 C           0.0000    0.0000    0.0000 C.3     1  UNL1        0.1793
      4 O           0.0000    0.0000    0.0000 O.3     1  UNL1       -0.3345
      5 C           0.0000    0.0000    0.0000 C.3     1  UNL1        0.2221
      6 N           0.0000    0.0000    0.0000 N.3     1  UNL1       -0.2176
      7 C           0.0000    0.0000    0.0000 C.3     1  UNL1        0.1671
      8 N           0.0000    0.0000    0.0000 N.3     1  UNL1       -0.1935
      9 C           0.0000    0.0000    0.0000 C.3     1  UNL1        0.1429
     10 C           0.0000    0.0000    0.0000 C.3     1  UNL1        0.1562
     11 N           0.0000    0.0000    0.0000 N.3     1  UNL1       -0.2056
     12 C           0.0000    0.0000    0.0000 C.3     1  UNL1        0.0711
     13 N           0.0000    0.0000    0.0000 N.3     1  UNL1       -0.1373
     14 N           0.0000    0.0000    0.0000 N.am    1  UNL1       -0.6067
     15 C           0.0000    0.0000    0.0000 C.2     1  UNL1        0.0761
     16 O           0.0000    0.0000    0.0000 O.2     1  UNL1       -0.3162
@<TRIPOS>BOND
     1     1     2    1
     2     2     3    1
     3     3     4    1
     4     4     5    1
     5     5     6    1
     6     6     7    1
     7     7     8    1
     8     8     9    1
     9     9    10    1
    10     6    10    1
    11    10    11    1
    12    11    12    1
    13    12    13    1
    14    12    14    1
    15    14    15    1
    16     9    15    1
    17    15    16    2
@<TRIPOS>MOLECULE
*****
 12 13 0 0 0
SMALL
GASTEIGER

@<TRIPOS>ATOM
      1 O           0.0000    0.0000    0.0000 O.2     1  UNL1       -0.3120
      2 C           0.0000    0.0000    0.0000 C.2     1  UNL1        0.0948
      3 N           0.0000    0.0000    0.0000 N.am    1  UNL1       -0.5022
      4 S           0.0000    0.0000    0.0000 S.O2    1  UNL1       -0.0558
      5 O           0.0000    0.0000    0.0000 O.2     1  UNL1       -0.1841
      6 O           0.0000    0.0000    0.0000 O.2     1  UNL1       -0.1841
      7 C           0.0000    0.0000    0.0000 C.ar    1  UNL1        0.0906
      8 C           0.0000    0.0000    0.0000 C.ar    1  UNL1        0.0320
      9 C           0.0000    0.0000    0.0000 C.ar    1  UNL1        0.0025
     10 C           0.0000    0.0000    0.0000 C.ar    1  UNL1        0.0001
     11 C           0.0000    0.0000    0.0000 C.ar    1  UNL1        0.0013
     12 C           0.0000    0.0000    0.0000 C.ar    1  UNL1        0.0169
@<TRIPOS>BOND
     1     1     2    2
     2     2     3    1
     3     3     4    1
     4     4     5    2
     5     4     6    2
     6     4     7    1
     7     7     8   ar
     8     2     8    1
     9     8     9   ar
    10     9    10   ar
    11    10    11   ar
    12    11    12   ar
    13     7    12   ar
@<TRIPOS>MOLECULE
*****
 12 11 0 0 0
SMALL
GASTEIGER

@<TRIPOS>ATOM
      1 N1          0.0000    0.0000    0.0000 N.2     1  <1>        -0.3632
      2 N2          0.0000    0.0000    0.0000 N.2     1  <1>        -0.1460
      3 C1          0.0000    0.0000    0.0000 C.2     1  <1>         0.4946
      4 C2          0.0000    0.0000    0.0000 C.2     1  <1>         0.4312
      5 O1          0.0000    0.0000    0.0000 O.2     1  <1>        -0.2365
      6 O2          0.0000    0.0000    0.0000 O.3     1  <1>        -0.4381
      7 C3          0.0000    0.0000    0.0000 C.3     1  <1>         0.2394
      8 C4          0.0000    0.0000    0.0000 C.3     1  <1>         0.2376
      9 C5          0.0000    0.0000    0.0000 C.2     1  <1>         0.3856
     10 O3          0.0000    0.0000    0.0000 O.co2   1  <1>        -0.2439
     11 O4          0.0000    0.0000    0.0000 O.co2   1  <1>        -0.2439
     12 N3          0.0000    0.0000    0.0000 N.3     1  <1>        -0.1168
@<TRIPOS>BOND
     1     1     2    2
     2     2     3    2
     3     3     4    1
     4     4     5    2
     5     4     6    1
     6     6     7    1
     7     7     8    1
     8     8     9    1
     9     9    10   ar
    10     9    11   ar
    11     8    12    1
@<TRIPOS>MOLECULE
*****
 17 19 0 0 0
SMALL
GASTEIGER

@<TRIPOS>ATOM
      1 C           0.0000    0.0000    0.0000 C.3     1  UNL1        0.0342
      2 C           0.0000    0.0000    0.0000 C.ar    1  UNL1        0.0127
      3 C           0.0000    0.0000    0.0000 C.ar    1  UNL1        0.0003
      4 C           0.0000    0.0000    0.0000 C.ar    1  UNL1        0.0189
      5 C           0.0000    0.0000    0.0000 C.ar    1  UNL1        0.0843
      6 N           0.0000    0.0000    0.0000 N.ar    1  UNL1       -0.2585
      7 C           0.0000    0.0000    0.0000 C.ar    1  UNL1        0.1459
      8 N           0.0000    0.0000    0.0000 N.ar    1  UNL1       -0.2271
      9 C           0.0000    0.0000    0.0000 C.ar    1  UNL1        0.0986
     10 C           0.0000    0.0000    0.0000 C.ar    1  UNL1        0.0607
     11 C           0.0000    0.0000    0.0000 C.ar    1  UNL1        0.2612
     12 O           0.0000    0.0000    0.0000 O.2     1  UNL1       -0.2672
     13 C           0.0000    0.0000    0.0000 C.ar    1  UNL1        0.0505
     14 N           0.0000    0.0000    0.0000 N.ar    1  UNL1       -0.2893
     15 N           0.0000    0.0000    0.0000 N.ar    1  UNL1       -0.2180
     16 N           0.0000    0.0000    0.0000 N.ar    1  UNL1       -0.2180
     17 N           0.0000    0.0000    0.0000 N.ar    1  UNL1       -0.2893
@<TRIPOS>BOND
     1     1     2    1
     2     2     3   ar
     3     3     4   ar
     4     4     5   ar
     5     5     6   ar
     6     6     7   ar
     7     2     7   ar
     8     7     8   ar
     9     8     9   ar
    10     9    10   ar
    11    10    11   ar
    12     6    11   ar
    13    11    12    2
    14    10    13    1
    15    13    14   ar
    16    14    15   ar
    17    15    16   ar
    18    16    17   ar
    19    13    17   ar
@<TRIPOS>MOLECULE
*****
 12 12 0 0 0
SMALL
GASTEIGER

@<TRIPOS>ATOM
      1 C           0.0000    0.0000    0.0000 C.3     1  UNL1        0.0725
      2 C           0.0000    0.0000    0.0000 C.2     1  UNL1        0.1233
      3 C           0.0000    0.0000    0.0000 C.2     1  UNL1        0.0351
      4 C           0.0000    0.0000    0.0000 C.2     1  UNL1        0.0361
      5 O           0.0000    0.0000    0.0000 O.2     1  UNL1       -0.3281
      6 C           0.0000    0.0000    0.0000 C.2     1  UNL1       -0.0817
      7 C           0.0000    0.0000    0.0000 C.2     1  UNL1        0.1753
      8 O           0.0000    0.0000    0.0000 O.2     1  UNL1       -0.2891
      9 O           0.0000    0.0000    0.0000 O.3     1  UNL1       -0.4557
     10 C           0.0000    0.0000    0.0000 C.2     1  UNL1        0.0118
     11 O           0.0000    0.0000    0.0000 O.2     1  UNL1       -0.3326
     12 C           0.0000    0.0000    0.0000 C.3     1  UNL1        0.0333
@<TRIPOS>BOND
     1     1     2    1
     2     2     3    2
     3     3     4    1
     4     4     5    2
     5     4     6    1
     6     6     7    1
     7     7     8    2
     8     7     9    1
     9     2     9    1
    10     6    10    1
    11    10    11    2
    12    10    12    1
@<TRIPOS>MOLECULE
*****
 14 14 0 0 0
SMALL
GASTEIGER

@<TRIPOS>ATOM
      1 C           0.0000    0.0000    0.0000 C.3     1  UNL1        0.0502
      2 C           0.0000    0.0000    0.0000 C.2     1  UNL1        0.0708
      3 O           0.0000    0.0000    0.0000 O.2     1  UNL1       -0.3167
      4 N           0.0000    0.0000    0.0000 N.am    1  UNL1       -0.5058
      5 S           0.0000    0.0000    0.0000 S.O2    1  UNL1       -0.0560
      6 O           0.0000    0.0000    0.0000 O.2     1  UNL1       -0.1841
      7 O           0.0000    0.0000    0.0000 O.2     1  UNL1       -0.1841
      8 C           0.0000    0.0000    0.0000 C.ar    1  UNL1        0.0894
      9 C           0.0000    0.0000    0.0000 C.ar    1  UNL1        0.0183
     10 C           0.0000    0.0000    0.0000 C.ar    1  UNL1        0.0193
     11 C           0.0000    0.0000    0.0000 C.ar    1  UNL1        0.0892
     12 C           0.0000    0.0000    0.0000 C.ar    1  UNL1        0.0193
     13 C           0.0000    0.0000    0.0000 C.ar    1  UNL1        0.0183
     14 N           0.0000    0.0000    0.0000 N.pl3   1  UNL1       -0.1281
@<TRIPOS>BOND
     1     1     2    1
     2     2     3    2
     3     2     4    1
     4     4     5    1
     5     5     6    2
     6     5     7    2
     7     5     8    1
     8     8     9   ar
     9     9    10   ar
    10    10    11   ar
    11    11    12   ar
    12    12    13   ar
    13     8    13   ar
    14    11    14    1
@<TRIPOS>MOLECULE
*****
 14 14 0 0 0
SMALL
GASTEIGER

@<TRIPOS>ATOM
      1 C           0.0000    0.0000    0.0000 C.3     1  UNL1        0.0969
      2 C           0.0000    0.0000    0.0000 C.2     1  UNL1        0.2478
      3 O           0.0000    0.0000    0.0000 O.2     1  UNL1       -0.2729
      4 N           0.0000    0.0000    0.0000 N.am    1  UNL1       -0.1528
      5 C           0.0000    0.0000    0.0000 C.ar    1  UNL1        0.2091
      6 N           0.0000    0.0000    0.0000 N.ar    1  UNL1       -0.1223
      7 N           0.0000    0.0000    0.0000 N.ar    1  UNL1       -0.1234
      8 C           0.0000    0.0000    0.0000 C.ar    1  UNL1        0.2040
      9 S           0.0000    0.0000    0.0000 S.2     1  UNL1       -0.0130
     10 S           0.0000    0.0000    0.0000 S.O2    1  UNL1       -0.1907
     11 O           0.0000    0.0000    0.0000 O.2     1  UNL1       -0.2013
     12 O           0.0000    0.0000    0.0000 O.2     1  UNL1       -0.2013
     13 N           0.0000    0.0000    0.0000 N.3     1  UNL1       -0.1559
     14 H           0.0000    0.0000    0.0000 H       1  UNL1       -0.3241
@<TRIPOS>BOND
     1     1     2    1
     2     2     3    2
     3     2     4   am
     4     4     5    1
     5     5     6   ar
     6     6     7   ar
     7     7     8   ar
     8     8     9   ar
     9     5     9   ar
    10     8    10    1
    11    10    11    2
    12    10    12    2
    13    10    13    1
    14    13    14    1
@<TRIPOS>MOLECULE
*****
 17 18 0 0 0
SMALL
GASTEIGER

@<TRIPOS>ATOM
      1 N           0.0000    0.0000    0.0000 N.pl3   1  UNL1       -0.1281
      2 C           0.0000    0.0000    0.0000 C.ar    1  UNL1        0.0892
      3 C           0.0000    0.0000    0.0000 C.ar    1  UNL1        0.0193
      4 C           0.0000    0.0000    0.0000 C.ar    1  UNL1        0.0183
      5 C           0.0000    0.0000    0.0000 C.ar    1  UNL1        0.0894
      6 C           0.0000    0.0000    0.0000 C.ar    1  UNL1        0.0183
      7 C           0.0000    0.0000    0.0000 C.ar    1  UNL1        0.0193
      8 S           0.0000    0.0000    0.0000 S.O2    1  UNL1       -0.0559
      9 O           0.0000    0.0000    0.0000 O.2     1  UNL1       -0.1841
     10 O           0.0000    0.0000    0.0000 O.2     1  UNL1       -0.1841
     11 N           0.0000    0.0000    0.0000 N.pl3   1  UNL1       -0.5049
     12 C           0.0000    0.0000    0.0000 C.ar    1  UNL1        0.0590
     13 N           0.0000    0.0000    0.0000 N.ar    1  UNL1       -0.2485
     14 C           0.0000    0.0000    0.0000 C.ar    1  UNL1        0.1000
     15 C           0.0000    0.0000    0.0000 C.ar    1  UNL1        0.0412
     16 C           0.0000    0.0000    0.0000 C.ar    1  UNL1        0.1000
     17 N           0.0000    0.0000    0.0000 N.ar    1  UNL1       -0.2485
@<TRIPOS>BOND
     1     1     2    1
     2     2     3   ar
     3     3     4   ar
     4     4     5   ar
     5     5     6   ar
     6     6     7   ar
     7     2     7   ar
     8     5     8    1
     9     8     9    2
    10     8    10    2
    11     8    11    1
    12    11    12    1
    13    12    13   ar
    14    13    14   ar
    15    14    15   ar
    16    15    16   ar
    17    16    17   ar
    18    12    17   ar
@<TRIPOS>MOLECULE
*****
 17 18 0 0 0
SMALL
GASTEIGER

@<TRIPOS>ATOM
      1 C           0.0000    0.0000    0.0000 C.3     1  UNL1        0.0512
      2 C           0.0000    0.0000    0.0000 C.3     1  UNL1        0.2070
      3 O           0.0000    0.0000    0.0000 O.3     1  UNL1       -0.4615
      4 C           0.0000    0.0000    0.0000 C.2     1  UNL1        0.2308
      5 O           0.0000    0.0000    0.0000 O.2     1  UNL1       -0.2725
      6 N           0.0000    0.0000    0.0000 N.am    1  UNL1       -0.5418
      7 C           0.0000    0.0000    0.0000 C.ar    1  UNL1        0.1465
      8 O           0.0000    0.0000    0.0000 O.2     1  UNL1       -0.3215
      9 N           0.0000    0.0000    0.0000 N.ar    1  UNL1        0.2301
     10 N           0.0000    0.0000    0.0000 N.ar    1  UNL1        0.0760
     11 C           0.0000    0.0000    0.0000 C.ar    1  UNL1        0.3681
     12 N           0.0000    0.0000    0.0000 N.pl3   1  UNL1       -0.0819
     13 C           0.0000    0.0000    0.0000 C.3     1  UNL1        0.1899
     14 C           0.0000    0.0000    0.0000 C.3     1  UNL1        0.1697
     15 O           0.0000    0.0000    0.0000 O.3     1  UNL1       -0.3497
     16 C           0.0000    0.0000    0.0000 C.3     1  UNL1        0.1697
     17 C           0.0000    0.0000    0.0000 C.3     1  UNL1        0.1899
@<TRIPOS>BOND
     1     1     2    1
     2     2     3    1
     3     3     4    1
     4     4     5    2
     5     4     6    1
     6     6     7    1
     7     7     8   ar
     8     8     9   ar
     9     9    10   ar
    10    10    11   ar
    11     7    11   ar
    12    10    12    1
    13    12    13    1
    14    13    14    1
    15    14    15    1
    16    15    16    1
    17    16    17    1
    18    12    17    1
@<TRIPOS>MOLECULE
*****
 19 20 0 0 0
SMALL
GASTEIGER

@<TRIPOS>ATOM
      1 C           0.0000    0.0000    0.0000 C.3     1  UNL1        0.2575
      2 O           0.0000    0.0000    0.0000 O.3     1  UNL1       -0.4282
      3 C           0.0000    0.0000    0.0000 C.2     1  UNL1        0.4430
      4 O           0.0000    0.0000    0.0000 O.2     1  UNL1       -0.2226
      5 N           0.0000    0.0000    0.0000 N.am    1  UNL1       -0.0415
      6 N           0.0000    0.0000    0.0000 N.2     1  UNL1       -0.1452
      7 C           0.0000    0.0000    0.0000 C.2     1  UNL1        0.1967
      8 C           0.0000    0.0000    0.0000 C.ar    1  UNL1        0.3292
      9 C           0.0000    0.0000    0.0000 C.ar    1  UNL1        0.3745
     10 N           0.0000    0.0000    0.0000 N.ar    1  UNL1       -0.1466
     11 O           0.0000    0.0000    0.0000 O.co2   1  UNL1       -0.6186
     12 C           0.0000    0.0000    0.0000 C.ar    1  UNL1        0.3019
     13 C           0.0000    0.0000    0.0000 C.ar    1  UNL1        0.3018
     14 N           0.0000    0.0000    0.0000 N.ar    1  UNL1       -0.1504
     15 O           0.0000    0.0000    0.0000 O.co2   1  UNL1       -0.6186
     16 C           0.0000    0.0000    0.0000 C.ar    1  UNL1        0.0770
     17 C           0.0000    0.0000    0.0000 C.ar    1  UNL1        0.0066
     18 C           0.0000    0.0000    0.0000 C.ar    1  UNL1        0.0066
     19 C           0.0000    0.0000    0.0000 C.ar    1  UNL1        0.0770
@<TRIPOS>BOND
     1     1     2    1
     2     2     3    1
     3     3     4    2
     4     3     5   am
     5     5     6    1
     6     6     7    2
     7     7     8    1
     8     8     9   ar
     9     9    10   ar
    10    10    11    1
    11    10    12   ar
    12    12    13   ar
    13    13    14   ar
    14     8    14   ar
    15    14    15    1
    16    13    16   ar
    17    16    17   ar
    18    17    18   ar
    19    18    19   ar
    20    12    19   ar
@<TRIPOS>MOLECULE
*****
 13 14 0 0 0
SMALL
GASTEIGER

@<TRIPOS>ATOM
      1 N           0.0000    0.0000    0.0000 N.pl3   1  UNL1       -0.0332
      2 C           0.0000    0.0000    0.0000 C.ar    1  UNL1        0.4839
      3 N           0.0000    0.0000    0.0000 N.ar    1  UNL1        0.1096
      4 N           0.0000    0.0000    0.0000 N.ar    1  UNL1       -0.0332
      5 O           0.0000    0.0000    0.0000 O.co2   1  UNL1       -0.5951
      6 C           0.0000    0.0000    0.0000 C.ar    1  UNL1        0.3279
      7 C           0.0000    0.0000    0.0000 C.ar    1  UNL1        0.3065
      8 N           0.0000    0.0000    0.0000 N.ar    1  UNL1       -0.1195
      9 O           0.0000    0.0000    0.0000 O.co2   1  UNL1       -0.6167
     10 C           0.0000    0.0000    0.0000 C.ar    1  UNL1        0.0772
     11 C           0.0000    0.0000    0.0000 C.ar    1  UNL1        0.0066
     12 C           0.0000    0.0000    0.0000 C.ar    1  UNL1        0.0067
     13 C           0.0000    0.0000    0.0000 C.ar    1  UNL1        0.0795
@<TRIPOS>BOND
     1     1     2    1
     2     2     3   ar
     3     3     4   ar
     4     4     5    1
     5     4     6   ar
     6     6     7   ar
     7     7     8   ar
     8     2     8   ar
     9     8     9    1
    10     7    10   ar
    11    10    11   ar
    12    11    12   ar
    13    12    13   ar
    14     6    13   ar
@<TRIPOS>MOLECULE
*****
 22 24 0 0 0
SMALL
GASTEIGER

@<TRIPOS>ATOM
      1 C           0.0000    0.0000    0.0000 C.3     1  UNL1        0.1444
      2 N           0.0000    0.0000    0.0000 N.2     1  UNL1       -0.2431
      3 O           0.0000    0.0000    0.0000 O.2     1  UNL1       -0.1923
      4 C           0.0000    0.0000    0.0000 C.3     1  UNL1        0.1210
      5 C           0.0000    0.0000    0.0000 C.3     1  UNL1        0.0471
      6 C           0.0000    0.0000    0.0000 C.3     1  UNL1        0.0975
      7 N           0.0000    0.0000    0.0000 N.pl3   1  UNL1       -0.2873
      8 C           0.0000    0.0000    0.0000 C.ar    1  UNL1        0.0475
      9 C           0.0000    0.0000    0.0000 C.ar    1  UNL1        0.0145
     10 C           0.0000    0.0000    0.0000 C.ar    1  UNL1        0.0013
     11 C           0.0000    0.0000    0.0000 C.ar    1  UNL1       -0.0002
     12 C           0.0000    0.0000    0.0000 C.ar    1  UNL1       -0.0030
     13 C           0.0000    0.0000    0.0000 C.ar    1  UNL1       -0.0082
     14 C           0.0000    0.0000    0.0000 C.3     1  UNL1        0.0323
     15 C           0.0000    0.0000    0.0000 C.3     1  UNL1        0.0323
     16 C           0.0000    0.0000    0.0000 C.ar    1  UNL1       -0.0082
     17 C           0.0000    0.0000    0.0000 C.ar    1  UNL1        0.0475
     18 C           0.0000    0.0000    0.0000 C.ar    1  UNL1        0.0145
     19 C           0.0000    0.0000    0.0000 C.ar    1  UNL1        0.0013
     20 C           0.0000    0.0000    0.0000 C.ar    1  UNL1       -0.0002
     21 C           0.0000    0.0000    0.0000 C.ar    1  UNL1       -0.0030
     22 C           0.0000    0.0000    0.0000 C.3     1  UNL1        0.1444
@<TRIPOS>BOND
     1     1     2    1
     2     2     3    2
     3     2     4    1
     4     4     5    1
     5     5     6    1
     6     6     7    1
     7     7     8    1
     8     8     9   ar
     9     9    10   ar
    10    10    11   ar
    11    11    12   ar
    12    12    13   ar
    13     8    13   ar
    14    13    14    1
    15    14    15    1
    16    15    16    1
    17    16    17   ar
    18     7    17    1
    19    17    18   ar
    20    18    19   ar
    21    19    20   ar
    22    20    21   ar
    23    16    21   ar
    24     2    22    1
@<TRIPOS>MOLECULE
*****
 17 17 0 0 0
SMALL
GASTEIGER

@<TRIPOS>ATOM
      1 C           0.0000    0.0000    0.0000 C.3     1  UNL1        0.0000
      2 C           0.0000    0.0000    0.0000 C.3     1  UNL1        0.0000
      3 C           0.0000    0.0000    0.0000 C.3     1  UNL1        0.0008
      4 C           0.0000    0.0000    0.0000 C.3     1  UNL1        0.0136
      5 C           0.0000    0.0000    0.0000 C.3     1  UNL1        0.1081
      6 C           0.0000    0.0000    0.0000 C.3     1  UNL1        0.0401
      7 C           0.0000    0.0000    0.0000 C.2     1  UNL1       -0.0253
      8 C           0.0000    0.0000    0.0000 C.2     1  UNL1       -0.0049
      9 C           0.0000    0.0000    0.0000 C.2     1  UNL1        0.0690
     10 O           0.0000    0.0000    0.0000 O.2     1  UNL1       -0.3170
     11 N           0.0000    0.0000    0.0000 N.am    1  UNL1       -0.5664
     12 C           0.0000    0.0000    0.0000 C.2     1  UNL1        0.1593
     13 O           0.0000    0.0000    0.0000 O.2     1  UNL1       -0.2949
     14 N           0.0000    0.0000    0.0000 N.am    1  UNL1       -0.1618
     15 C           0.0000    0.0000    0.0000 C.2     1  UNL1        0.2511
     16 O           0.0000    0.0000    0.0000 O.2     1  UNL1       -0.2726
     17 C           0.0000    0.0000    0.0000 C.3     1  UNL1        0.0009
@<TRIPOS>BOND
     1     1     2    1
     2     2     3    1
     3     3     4    1
     4     4     5    1
     5     5     6    1
     6     6     7    1
     7     7     8    2
     8     5     9    1
     9     9    10    2
    10     9    11    1
    11    11    12    1
    12    12    13    2
    13    12    14   am
    14    14    15   am
    15     5    15    1
    16    15    16    2
    17     4    17    1
@<TRIPOS>MOLECULE
*****
 19 21 0 0 0
SMALL
GASTEIGER

@<TRIPOS>ATOM
      1 C           0.0000    0.0000    0.0000 C.3     1  UNL1        0.2528
      2 O           0.0000    0.0000    0.0000 O.3     1  UNL1       -0.4653
      3 C           0.0000    0.0000    0.0000 C.ar    1  UNL1        0.2093
      4 C           0.0000    0.0000    0.0000 C.ar    1  UNL1        0.0435
      5 C           0.0000    0.0000    0.0000 C.ar    1  UNL1        0.0097
      6 C           0.0000    0.0000    0.0000 C.ar    1  UNL1        0.0772
      7 C           0.0000    0.0000    0.0000 C.ar    1  UNL1        0.3049
      8 C           0.0000    0.0000    0.0000 C.ar    1  UNL1        0.3356
      9 N           0.0000    0.0000    0.0000 N.ar    1  UNL1       -0.1494
     10 O           0.0000    0.0000    0.0000 O.co2   1  UNL1       -0.6186
     11 C           0.0000    0.0000    0.0000 C.ar    1  UNL1        0.3005
     12 C           0.0000    0.0000    0.0000 C.ar    1  UNL1        0.0769
     13 C           0.0000    0.0000    0.0000 C.ar    1  UNL1        0.0053
     14 C           0.0000    0.0000    0.0000 C.ar    1  UNL1       -0.0103
     15 C           0.0000    0.0000    0.0000 C.ar    1  UNL1       -0.0179
     16 C           0.0000    0.0000    0.0000 C.ar    1  UNL1        0.2861
     17 N           0.0000    0.0000    0.0000 N.ar    1  UNL1       -0.1528
     18 O           0.0000    0.0000    0.0000 O.co2   1  UNL1       -0.6187
     19 O           0.0000    0.0000    0.0000 O.co2   1  UNL1       -0.8689
@<TRIPOS>BOND
     1     1     2    1
     2     2     3    1
     3     3     4   ar
     4     4     5   ar
     5     5     6   ar
     6     6     7   ar
     7     7     8   ar
     8     3     8   ar
     9     8     9   ar
    10     9    10    1
    11     9    11   ar
    12    11    12   ar
    13    12    13   ar
    14    13    14   ar
    15    14    15   ar
    16    15    16   ar
    17    11    16   ar
    18    16    17   ar
    19     7    17   ar
    20    17    18    1
    21    15    19    1
@<TRIPOS>MOLECULE
*****
 15 14 0 0 0
SMALL
GASTEIGER

@<TRIPOS>ATOM
      1 N           0.0000    0.0000    0.0000 N.2     1  UNL1       -0.3633
      2 N           0.0000    0.0000    0.0000 N.2     1  UNL1       -0.1502
      3 C           0.0000    0.0000    0.0000 C.2     1  UNL1        0.4506
      4 C           0.0000    0.0000    0.0000 C.2     1  UNL1        0.2606
      5 O           0.0000    0.0000    0.0000 O.2     1  UNL1       -0.2835
      6 C           0.0000    0.0000    0.0000 C.3     1  UNL1        0.0794
      7 C           0.0000    0.0000    0.0000 C.3     1  UNL1        0.0417
      8 CA          0.0000    0.0000    0.0000 C.3     1  UNL1        0.1982
      9 C           0.0000    0.0000    0.0000 C.2     1  UNL1        0.3842
     10 O           0.0000    0.0000    0.0000 O.co2   1  UNL1       -0.2437
     11 OXT         0.0000    0.0000    0.0000 O.co2   1  UNL1       -0.2437
     12 N           0.0000    0.0000    0.0000 N.am    1  UNL1       -0.1956
     13 C           0.0000    0.0000    0.0000 C.2     1  UNL1        0.2423
     14 O           0.0000    0.0000    0.0000 O.2     1  UNL1       -0.2733
     15 C           0.0000    0.0000    0.0000 C.3     1  UNL1        0.0964
@<TRIPOS>BOND
     1     1     2    2
     2     2     3    2
     3     3     4    1
     4     4     5    2
     5     4     6    1
     6     6     7    1
     7     7     8    1
     8     8     9    1
     9     9    10   ar
    10     9    11   ar
    11     8    12    1
    12    12    13   am
    13    13    14    2
    14    13    15    1
@<TRIPOS>MOLECULE
*****
 18 18 0 0 0
SMALL
GASTEIGER

@<TRIPOS>ATOM
      1 C           0.0000    0.0000    0.0000 C.3     1  UNL1        0.0001
      2 C           0.0000    0.0000    0.0000 C.3     1  UNL1        0.0018
      3 C           0.0000    0.0000    0.0000 C.3     1  UNL1        0.0234
      4 C           0.0000    0.0000    0.0000 C.3     1  UNL1        0.1136
      5 N           0.0000    0.0000    0.0000 N.am    1  UNL1       -0.2214
      6 C           0.0000    0.0000    0.0000 C.2     1  UNL1        0.1628
      7 O           0.0000    0.0000    0.0000 O.2     1  UNL1       -0.2945
      8 N           0.0000    0.0000    0.0000 N.am    1  UNL1       -0.4886
      9 S           0.0000    0.0000    0.0000 S.O2    1  UNL1       -0.0550
     10 O           0.0000    0.0000    0.0000 O.2     1  UNL1       -0.1841
     11 O           0.0000    0.0000    0.0000 O.2     1  UNL1       -0.1841
     12 C           0.0000    0.0000    0.0000 C.ar    1  UNL1        0.0894
     13 C           0.0000    0.0000    0.0000 C.ar    1  UNL1        0.0166
     14 C           0.0000    0.0000    0.0000 C.ar    1  UNL1       -0.0030
     15 C           0.0000    0.0000    0.0000 C.ar    1  UNL1       -0.0218
     16 C           0.0000    0.0000    0.0000 C.ar    1  UNL1       -0.0030
     17 C           0.0000    0.0000    0.0000 C.ar    1  UNL1        0.0166
     18 C           0.0000    0.0000    0.0000 C.3     1  UNL1        0.0310
@<TRIPOS>BOND
     1     1     2    1
     2     2     3    1
     3     3     4    1
     4     4     5    1
     5     5     6   am
     6     6     7    2
     7     6     8    1
     8     8     9    1
     9     9    10    2
    10     9    11    2
    11     9    12    1
    12    12    13   ar
    13    13    14   ar
    14    14    15   ar
    15    15    16   ar
    16    16    17   ar
    17    12    17   ar
    18    15    18    1
@<TRIPOS>MOLECULE
*****
 17 17 0 0 0
SMALL
GASTEIGER

@<TRIPOS>ATOM
      1 N           0.0000    0.0000    0.0000 N.3     0  UNK0       -0.1310
      2 C           0.0000    0.0000    0.0000 C.3     0  UNK0        0.1153
      3 C           0.0000    0.0000    0.0000 C.3     0  UNK0        0.0636
      4 C           0.0000    0.0000    0.0000 C.2     0  UNK0        0.0572
      5 O           0.0000    0.0000    0.0000 O.2     0  UNK0       -0.3177
      6 N           0.0000    0.0000    0.0000 N.am    1  HIS1       -0.6320
      7 CA          0.0000    0.0000    0.0000 C.3     1  HIS1       -0.0599
      8 C           0.0000    0.0000    0.0000 C.2     1  HIS1        0.0303
      9 O           0.0000    0.0000    0.0000 O.co2   1  HIS1       -0.5508
     10 OXT         0.0000    0.0000    0.0000 O.co2   1  HIS1       -0.5508
     11 CB          0.0000    0.0000    0.0000 C.3     1  HIS1        0.0292
     12 CG          0.0000    0.0000    0.0000 C.ar    1  HIS1        0.0528
     13 ND1         0.0000    0.0000    0.0000 N.ar    1  HIS1       -0.3382
     14 HD1         0.0000    0.0000    0.0000 H       1  HIS1        0.1672
     15 CE1         0.0000    0.0000    0.0000 C.ar    1  HIS1        0.1748
     16 NE2         0.0000    0.0000    0.0000 N.ar    1  HIS1       -0.2229
     17 CD2         0.0000    0.0000    0.0000 C.ar    1  HIS1        0.1130
@<TRIPOS>BOND
     1     1     2    1
     2     2     3    1
     3     3     4    1
     4     4     5    2
     5     4     6    1
     6     6     7    1
     7     7     8    1
     8     8     9   ar
     9     8    10   ar
    10     7    11    1
    11    11    12    1
    12    12    13   ar
    13    13    14    1
    14    13    15   ar
    15    15    16   ar
    16    16    17   ar
    17    12    17   ar
@<TRIPOS>MOLECULE
*****
 16 17 0 0 0
SMALL
GASTEIGER

@<TRIPOS>ATOM
      1 C           0.0000    0.0000    0.0000 C.3     1  UNL1        0.0307
      2 C           0.0000    0.0000    0.0000 C.ar    1  UNL1       -0.0257
      3 C           0.0000    0.0000    0.0000 C.ar    1  UNL1       -0.0012
      4 C           0.0000    0.0000    0.0000 C.ar    1  UNL1        0.0434
      5 C           0.0000    0.0000    0.0000 C.ar    1  UNL1        0.0434
      6 C           0.0000    0.0000    0.0000 C.ar    1  UNL1       -0.0012
      7 C           0.0000    0.0000    0.0000 C.ar    1  UNL1       -0.0257
      8 C           0.0000    0.0000    0.0000 C.3     1  UNL1        0.0307
      9 C           0.0000    0.0000    0.0000 C.ar    1  UNL1        0.2171
     10 O           0.0000    0.0000    0.0000 O.2     1  UNL1       -0.2848
     11 C           0.0000    0.0000    0.0000 C.ar    1  UNL1        0.1692
     12 N           0.0000    0.0000    0.0000 N.pl3   1  UNL1       -0.1789
     13 O           0.0000    0.0000    0.0000 O.2     1  UNL1       -0.1723
     14 O           0.0000    0.0000    0.0000 O.co2   1  UNL1       -0.7769
     15 C           0.0000    0.0000    0.0000 C.ar    1  UNL1        0.2171
     16 O           0.0000    0.0000    0.0000 O.2     1  UNL1       -0.2848
@<TRIPOS>BOND
     1     1     2    1
     2     2     3   ar
     3     3     4   ar
     4     4     5   ar
     5     5     6   ar
     6     6     7   ar
     7     2     7   ar
     8     7     8    1
     9     5     9   ar
    10     9    10    2
    11     9    11   ar
    12    11    12    2
    13    12    13    2
    14    12    14    1
    15    11    15   ar
    16     4    15   ar
    17    15    16    2
@<TRIPOS>MOLECULE
*****
 21 22 0 0 0
SMALL
GASTEIGER

@<TRIPOS>ATOM
      1 C           0.0000    0.0000    0.0000 C.3     1  UNL1        0.1743
      2 O           0.0000    0.0000    0.0000 O.3     1  UNL1       -0.3471
      3 C           0.0000    0.0000    0.0000 C.3     1  UNL1        0.1894
      4 C           0.0000    0.0000    0.0000 C.3     1  UNL1        0.2374
      5 O           0.0000    0.0000    0.0000 O.3     1  UNL1       -0.4696
      6 C           0.0000    0.0000    0.0000 C.ar    1  UNL1        0.1767
      7 C           0.0000    0.0000    0.0000 C.ar    1  UNL1        0.1368
      8 N           0.0000    0.0000    0.0000 N.ar    1  UNL1       -0.2453
      9 C           0.0000    0.0000    0.0000 C.ar    1  UNL1        0.0592
     10 N           0.0000    0.0000    0.0000 N.ar    1  UNL1       -0.2453
     11 C           0.0000    0.0000    0.0000 C.ar    1  UNL1        0.1368
     12 N           0.0000    0.0000    0.0000 N.pl3   1  UNL1       -0.5049
     13 S           0.0000    0.0000    0.0000 S.O2    1  UNL1       -0.0559
     14 O           0.0000    0.0000    0.0000 O.2     1  UNL1       -0.1841
     15 O           0.0000    0.0000    0.0000 O.2     1  UNL1       -0.1841
     16 C           0.0000    0.0000    0.0000 C.ar    1  UNL1        0.0894
     17 C           0.0000    0.0000    0.0000 C.ar    1  UNL1        0.0169
     18 C           0.0000    0.0000    0.0000 C.ar    1  UNL1        0.0013
     19 C           0.0000    0.0000    0.0000 C.ar    1  UNL1        0.0001
     20 C           0.0000    0.0000    0.0000 C.ar    1  UNL1        0.0013
     21 C           0.0000    0.0000    0.0000 C.ar    1  UNL1        0.0169
@<TRIPOS>BOND
     1     1     2    1
     2     2     3    1
     3     3     4    1
     4     4     5    1
     5     5     6    1
     6     6     7   ar
     7     7     8   ar
     8     8     9   ar
     9     9    10   ar
    10    10    11   ar
    11     6    11   ar
    12     9    12    1
    13    12    13    1
    14    13    14    2
    15    13    15    2
    16    13    16    1
    17    16    17   ar
    18    17    18   ar
    19    18    19   ar
    20    19    20   ar
    21    20    21   ar
    22    16    21   ar
@<TRIPOS>MOLECULE
*****
 19 20 0 0 0
SMALL
GASTEIGER

@<TRIPOS>ATOM
      1 C           0.0000    0.0000    0.0000 C.3     1  UNL1        0.2542
      2 O           0.0000    0.0000    0.0000 O.3     1  UNL1       -0.4561
      3 C           0.0000    0.0000    0.0000 C.ar    1  UNL1        0.2260
      4 N           0.0000    0.0000    0.0000 N.ar    1  UNL1       -0.1894
      5 C           0.0000    0.0000    0.0000 C.ar    1  UNL1        0.1998
      6 N           0.0000    0.0000    0.0000 N.ar    1  UNL1       -0.2478
      7 C           0.0000    0.0000    0.0000 C.ar    1  UNL1       -0.0198
      8 C           0.0000    0.0000    0.0000 C.ar    1  UNL1        0.0528
      9 N           0.0000    0.0000    0.0000 N.pl3   1  UNL1       -0.5204
     10 S           0.0000    0.0000    0.0000 S.O2    1  UNL1       -0.0568
     11 O           0.0000    0.0000    0.0000 O.2     1  UNL1       -0.1841
     12 O           0.0000    0.0000    0.0000 O.2     1  UNL1       -0.1841
     13 C           0.0000    0.0000    0.0000 C.ar    1  UNL1        0.0894
     14 C           0.0000    0.0000    0.0000 C.ar    1  UNL1        0.0183
     15 C           0.0000    0.0000    0.0000 C.ar    1  UNL1        0.0193
     16 C           0.0000    0.0000    0.0000 C.ar    1  UNL1        0.0892
     17 C           0.0000    0.0000    0.0000 C.ar    1  UNL1        0.0193
     18 C           0.0000    0.0000    0.0000 C.ar    1  UNL1        0.0183
     19 N           0.0000    0.0000    0.0000 N.pl3   1  UNL1       -0.1281
@<TRIPOS>BOND
     1     1     2    1
     2     2     3    1
     3     3     4   ar
     4     4     5   ar
     5     5     6   ar
     6     6     7   ar
     7     7     8   ar
     8     3     8   ar
     9     7     9    1
    10     9    10    1
    11    10    11    2
    12    10    12    2
    13    10    13    1
    14    13    14   ar
    15    14    15   ar
    16    15    16   ar
    17    16    17   ar
    18    17    18   ar
    19    13    18   ar
    20    16    19    1
@<TRIPOS>MOLECULE
*****
 22 24 0 0 0
SMALL
GASTEIGER

@<TRIPOS>ATOM
      1 O           0.0000    0.0000    0.0000 O.3     1  UNL1       -0.2194
      2 C           0.0000    0.0000    0.0000 C.3     1  UNL1        0.1975
      3 C           0.0000    0.0000    0.0000 C.3     1  UNL1        0.1541
      4 C           0.0000    0.0000    0.0000 C.ar    1  UNL1       -0.0094
      5 C           0.0000    0.0000    0.0000 C.ar    1  UNL1       -0.0037
      6 C           0.0000    0.0000    0.0000 C.ar    1  UNL1       -0.0003
      7 C           0.0000    0.0000    0.0000 C.ar    1  UNL1       -0.0000
      8 C           0.0000    0.0000    0.0000 C.ar    1  UNL1       -0.0003
      9 C           0.0000    0.0000    0.0000 C.ar    1  UNL1       -0.0037
     10 C           0.0000    0.0000    0.0000 C.2     1  UNL1        0.3231
     11 O           0.0000    0.0000    0.0000 O.2     1  UNL1       -0.2497
     12 O           0.0000    0.0000    0.0000 O.3     1  UNL1       -0.4519
     13 C           0.0000    0.0000    0.0000 C.3     1  UNL1        0.1726
     14 C           0.0000    0.0000    0.0000 C.3     1  UNL1        0.0670
     15 C           0.0000    0.0000    0.0000 C.3     1  UNL1        0.1014
     16 C           0.0000    0.0000    0.0000 C.3     1  UNL1        0.0254
     17 C           0.0000    0.0000    0.0000 C.3     1  UNL1        0.0254
     18 C           0.0000    0.0000    0.0000 C.3     1  UNL1        0.1014
     19 C           0.0000    0.0000    0.0000 C.3     1  UNL1        0.0670
     20 N           0.0000    0.0000    0.0000 N.2     1  UNL1       -0.2485
     21 O           0.0000    0.0000    0.0000 O.2     1  UNL1       -0.1924
     22 C           0.0000    0.0000    0.0000 C.3     1  UNL1        0.1442
@<TRIPOS>BOND
     1     1     2    1
     2     2     3    1
     3     3     4    1
     4     4     5   ar
     5     5     6   ar
     6     6     7   ar
     7     7     8   ar
     8     8     9   ar
     9     4     9   ar
    10     3    10    1
    11    10    11    2
    12    10    12    1
    13    12    13    1
    14    13    14    1
    15    14    15    1
    16    15    16    1
    17    16    17    1
    18    17    18    1
    19    18    19    1
    20    13    19    1
    21    18    20    1
    22    15    20    1
    23    20    21    2
    24    20    22    1
@<TRIPOS>MOLECULE
*****
 17 18 0 0 0
SMALL
GASTEIGER

@<TRIPOS>ATOM
      1 CL          0.0000    0.0000    0.0000 Cl      1  UNL1       -0.0808
      2 C           0.0000    0.0000    0.0000 C.ar    1  UNL1        0.0779
      3 C           0.0000    0.0000    0.0000 C.ar    1  UNL1        0.0330
      4 C           0.0000    0.0000    0.0000 C.ar    1  UNL1        0.0957
      5 N           0.0000    0.0000    0.0000 N.2     1  UNL1       -0.2680
      6 C           0.0000    0.0000    0.0000 C.2     1  UNL1       -0.0309
      7 N           0.0000    0.0000    0.0000 N.pl3   1  UNL1       -0.5208
      8 S           0.0000    0.0000    0.0000 S.O2    1  UNL1       -0.0554
      9 O           0.0000    0.0000    0.0000 O.2     1  UNL1       -0.1841
     10 O           0.0000    0.0000    0.0000 O.2     1  UNL1       -0.1841
     11 C           0.0000    0.0000    0.0000 C.ar    1  UNL1        0.1082
     12 C           0.0000    0.0000    0.0000 C.ar    1  UNL1        0.0393
     13 C           0.0000    0.0000    0.0000 C.ar    1  UNL1        0.1369
     14 S           0.0000    0.0000    0.0000 S.O2    1  UNL1        0.0944
     15 O           0.0000    0.0000    0.0000 O.2     1  UNL1       -0.1503
     16 O           0.0000    0.0000    0.0000 O.2     1  UNL1       -0.1503
     17 N           0.0000    0.0000    0.0000 N.3     1  UNL1        0.0392
@<TRIPOS>BOND
     1     1     2    1
     2     2     3   ar
     3     3     4   ar
     4     4     5    1
     5     5     6    2
     6     6     7    1
     7     7     8    1
     8     8     9    2
     9     8    10    2
    10     8    11    1
    11     4    11   ar
    12    11    12   ar
    13    12    13   ar
    14     2    13   ar
    15    13    14    1
    16    14    15    2
    17    14    16    2
    18    14    17    1
@<TRIPOS>MOLECULE
*****
 19 20 0 0 0
SMALL
GASTEIGER

@<TRIPOS>ATOM
      1 N           0.0000    0.0000    0.0000 N.pl3   1  UNL1       -0.1281
      2 C           0.0000    0.0000    0.0000 C.ar    1  UNL1        0.0892
      3 C           0.0000    0.0000    0.0000 C.ar    1  UNL1        0.0193
      4 C           0.0000    0.0000    0.0000 C.ar    1  UNL1        0.0183
      5 C           0.0000    0.0000    0.0000 C.ar    1  UNL1        0.0894
      6 C           0.0000    0.0000    0.0000 C.ar    1  UNL1        0.0183
      7 C           0.0000    0.0000    0.0000 C.ar    1  UNL1        0.0193
      8 S           0.0000    0.0000    0.0000 S.O2    1  UNL1       -0.0559
      9 O           0.0000    0.0000    0.0000 O.2     1  UNL1       -0.1841
     10 O           0.0000    0.0000    0.0000 O.2     1  UNL1       -0.1841
     11 N           0.0000    0.0000    0.0000 N.pl3   1  UNL1       -0.5049
     12 C           0.0000    0.0000    0.0000 C.ar    1  UNL1        0.0581
     13 N           0.0000    0.0000    0.0000 N.ar    1  UNL1       -0.2544
     14 C           0.0000    0.0000    0.0000 C.ar    1  UNL1        0.0601
     15 C           0.0000    0.0000    0.0000 C.3     1  UNL1        0.0521
     16 C           0.0000    0.0000    0.0000 C.ar    1  UNL1        0.0294
     17 C           0.0000    0.0000    0.0000 C.ar    1  UNL1        0.0601
     18 N           0.0000    0.0000    0.0000 N.ar    1  UNL1       -0.2544
     19 C           0.0000    0.0000    0.0000 C.3     1  UNL1        0.0521
@<TRIPOS>BOND
     1     1     2    1
     2     2     3   ar
     3     3     4   ar
     4     4     5   ar
     5     5     6   ar
     6     6     7   ar
     7     2     7   ar
     8     5     8    1
     9     8     9    2
    10     8    10    2
    11     8    11    1
    12    11    12    1
    13    12    13   ar
    14    13    14   ar
    15    14    15    1
    16    14    16   ar
    17    16    17   ar
    18    17    18   ar
    19    12    18   ar
    20    17    19    1
@<TRIPOS>MOLECULE
*****
 23 25 0 0 0
SMALL
GASTEIGER

@<TRIPOS>ATOM
      1 C           0.0000    0.0000    0.0000 C.3     1  UNL1       -0.0001
      2 C           0.0000    0.0000    0.0000 C.3     1  UNL1       -0.0028
      3 C           0.0000    0.0000    0.0000 C.3     1  UNL1       -0.0364
      4 C           0.0000    0.0000    0.0000 C.3     1  UNL1       -0.1747
      5 C           0.0000    0.0000    0.0000 C.2     1  UNL1       -0.1461
      6 C           0.0000    0.0000    0.0000 C.2     1  UNL1        0.0959
      7 O           0.0000    0.0000    0.0000 O.2     1  UNL1       -0.3114
      8 N           0.0000    0.0000    0.0000 N.am    1  UNL1       -0.2108
      9 N           0.0000    0.0000    0.0000 N.am    1  UNL1       -0.2108
     10 C           0.0000    0.0000    0.0000 C.2     1  UNL1        0.0959
     11 O           0.0000    0.0000    0.0000 O.2     1  UNL1       -0.3114
     12 C           0.0000    0.0000    0.0000 C.ar    1  UNL1        0.0705
     13 C           0.0000    0.0000    0.0000 C.ar    1  UNL1        0.0165
     14 C           0.0000    0.0000    0.0000 C.ar    1  UNL1        0.0013
     15 C           0.0000    0.0000    0.0000 C.ar    1  UNL1        0.0001
     16 C           0.0000    0.0000    0.0000 C.ar    1  UNL1        0.0013
     17 C           0.0000    0.0000    0.0000 C.ar    1  UNL1        0.0165
     18 C           0.0000    0.0000    0.0000 C.ar    1  UNL1        0.0705
     19 C           0.0000    0.0000    0.0000 C.ar    1  UNL1        0.0165
     20 C           0.0000    0.0000    0.0000 C.ar    1  UNL1        0.0013
     21 C           0.0000    0.0000    0.0000 C.ar    1  UNL1        0.0001
     22 C           0.0000    0.0000    0.0000 C.ar    1  UNL1        0.0013
     23 C           0.0000    0.0000    0.0000 C.ar    1  UNL1        0.0165
@<TRIPOS>BOND
     1     1     2    1
     2     2     3    1
     3     3     4    1
     4     4     5    1
     5     5     6    1
     6     6     7    2
     7     6     8   am
     8     8     9    1
     9     9    10   am
    10     5    10    1
    11    10    11    2
    12     9    12    1
    13    12    13   ar
    14    13    14   ar
    15    14    15   ar
    16    15    16   ar
    17    16    17   ar
    18    12    17   ar
    19     8    18    1
    20    18    19   ar
    21    19    20   ar
    22    20    21   ar
    23    21    22   ar
    24    22    23   ar
    25    18    23   ar
@<TRIPOS>MOLECULE
*****
 21 22 0 0 0
SMALL
GASTEIGER

@<TRIPOS>ATOM
      1 C           0.0000    0.0000    0.0000 C.3     1  UNL1        0.2542
      2 O           0.0000    0.0000    0.0000 O.3     1  UNL1       -0.4560
      3 C           0.0000    0.0000    0.0000 C.ar    1  UNL1        0.2284
      4 N           0.0000    0.0000    0.0000 N.ar    1  UNL1       -0.1591
      5 C           0.0000    0.0000    0.0000 C.ar    1  UNL1        0.3208
      6 O           0.0000    0.0000    0.0000 O.3     1  UNL1       -0.4426
      7 C           0.0000    0.0000    0.0000 C.3     1  UNL1        0.2559
      8 N           0.0000    0.0000    0.0000 N.ar    1  UNL1       -0.2180
      9 C           0.0000    0.0000    0.0000 C.ar    1  UNL1       -0.0169
     10 C           0.0000    0.0000    0.0000 C.ar    1  UNL1        0.0529
     11 N           0.0000    0.0000    0.0000 N.pl3   1  UNL1       -0.5203
     12 S           0.0000    0.0000    0.0000 S.O2    1  UNL1       -0.0568
     13 O           0.0000    0.0000    0.0000 O.2     1  UNL1       -0.1841
     14 O           0.0000    0.0000    0.0000 O.2     1  UNL1       -0.1841
     15 C           0.0000    0.0000    0.0000 C.ar    1  UNL1        0.0894
     16 C           0.0000    0.0000    0.0000 C.ar    1  UNL1        0.0183
     17 C           0.0000    0.0000    0.0000 C.ar    1  UNL1        0.0193
     18 C           0.0000    0.0000    0.0000 C.ar    1  UNL1        0.0892
     19 C           0.0000    0.0000    0.0000 C.ar    1  UNL1        0.0193
     20 C           0.0000    0.0000    0.0000 C.ar    1  UNL1        0.0183
     21 N           0.0000    0.0000    0.0000 N.pl3   1  UNL1       -0.1281
@<TRIPOS>BOND
     1     1     2    1
     2     2     3    1
     3     3     4   ar
     4     4     5   ar
     5     5     6    1
     6     6     7    1
     7     5     8   ar
     8     8     9   ar
     9     9    10   ar
    10     3    10   ar
    11     9    11    1
    12    11    12    1
    13    12    13    2
    14    12    14    2
    15    12    15    1
    16    15    16   ar
    17    16    17   ar
    18    17    18   ar
    19    18    19   ar
    20    19    20   ar
    21    15    20   ar
    22    18    21    1
@<TRIPOS>MOLECULE
*****
 25 27 0 0 0
SMALL
GASTEIGER

@<TRIPOS>ATOM
      1 C           0.0000    0.0000    0.0000 C.3     1  UNL1        0.1741
      2 O           0.0000    0.0000    0.0000 O.3     1  UNL1       -0.3510
      3 C           0.0000    0.0000    0.0000 C.3     1  UNL1        0.1461
      4 C           0.0000    0.0000    0.0000 C.3     1  UNL1        0.0793
      5 C           0.0000    0.0000    0.0000 C.3     1  UNL1        0.2080
      6 O           0.0000    0.0000    0.0000 O.3     1  UNL1       -0.4756
      7 C           0.0000    0.0000    0.0000 C.ar    1  UNL1        0.1372
      8 C           0.0000    0.0000    0.0000 C.ar    1  UNL1        0.0572
      9 C           0.0000    0.0000    0.0000 C.ar    1  UNL1        0.1016
     10 N           0.0000    0.0000    0.0000 N.ar    1  UNL1       -0.2473
     11 C           0.0000    0.0000    0.0000 C.ar    1  UNL1        0.0718
     12 C           0.0000    0.0000    0.0000 C.ar    1  UNL1        0.0266
     13 C           0.0000    0.0000    0.0000 C.3     1  UNL1        0.0355
     14 C           0.0000    0.0000    0.0000 C.3     1  UNL1        0.1412
     15 S           0.0000    0.0000    0.0000 S.O     1  UNL1        0.0661
     16 O           0.0000    0.0000    0.0000 O.2     1  UNL1       -0.2514
     17 C           0.0000    0.0000    0.0000 C.ar    1  UNL1        0.0252
     18 N           0.0000    0.0000    0.0000 N.ar    1  UNL1       -0.6347
     19 C           0.0000    0.0000    0.0000 C.ar    1  UNL1       -0.0998
     20 C           0.0000    0.0000    0.0000 C.ar    1  UNL1        0.0577
     21 N           0.0000    0.0000    0.0000 N.ar    1  UNL1       -0.2624
     22 C           0.0000    0.0000    0.0000 C.ar    1  UNL1        0.0172
     23 C           0.0000    0.0000    0.0000 C.ar    1  UNL1        0.0014
     24 C           0.0000    0.0000    0.0000 C.ar    1  UNL1       -0.0017
     25 C           0.0000    0.0000    0.0000 C.ar    1  UNL1       -0.0225
@<TRIPOS>BOND
     1     1     2    1
     2     2     3    1
     3     3     4    1
     4     4     5    1
     5     5     6    1
     6     6     7    1
     7     7     8   ar
     8     8     9   ar
     9     9    10   ar
    10    10    11   ar
    11    11    12   ar
    12     7    12   ar
    13    12    13    1
    14    11    14    1
    15    14    15    1
    16    15    16    2
    17    15    17    1
    18    17    18   ar
    19    18    19   ar
    20    19    20   ar
    21    20    21   ar
    22    17    21   ar
    23    20    22   ar
    24    22    23   ar
    25    23    24   ar
    26    24    25   ar
    27    19    25   ar
@<TRIPOS>MOLECULE
*****
 21 22 0 0 0
SMALL
GASTEIGER

@<TRIPOS>ATOM
      1 O           0.0000    0.0000    0.0000 O.2     1  UNL1       -0.2866
      2 C           0.0000    0.0000    0.0000 C.2     1  UNL1        0.1955
      3 C           0.0000    0.0000    0.0000 C.ar    1  UNL1        0.0389
      4 C           0.0000    0.0000    0.0000 C.ar    1  UNL1        0.0032
      5 C           0.0000    0.0000    0.0000 C.ar    1  UNL1        0.0001
      6 C           0.0000    0.0000    0.0000 C.ar    1  UNL1        0.0000
      7 C           0.0000    0.0000    0.0000 C.ar    1  UNL1        0.0001
      8 C           0.0000    0.0000    0.0000 C.ar    1  UNL1        0.0032
      9 C           0.0000    0.0000    0.0000 C.ar    1  UNL1        0.0372
     10 C           0.0000    0.0000    0.0000 C.ar    1  UNL1        0.0031
     11 C           0.0000    0.0000    0.0000 C.ar    1  UNL1       -0.0018
     12 C           0.0000    0.0000    0.0000 C.ar    1  UNL1       -0.0238
     13 C           0.0000    0.0000    0.0000 C.ar    1  UNL1       -0.1124
     14 C           0.0000    0.0000    0.0000 C.ar    1  UNL1       -0.0207
     15 N           0.0000    0.0000    0.0000 N.pl3   1  UNL1       -0.5352
     16 S           0.0000    0.0000    0.0000 S.O2    1  UNL1       -0.0176
     17 O           0.0000    0.0000    0.0000 O.2     1  UNL1       -0.1836
     18 O           0.0000    0.0000    0.0000 O.2     1  UNL1       -0.1836
     19 C           0.0000    0.0000    0.0000 C.3     1  UNL1        0.4308
     20 F           0.0000    0.0000    0.0000 F       1  UNL1       -0.1734
     21 F           0.0000    0.0000    0.0000 F       1  UNL1       -0.1734
@<TRIPOS>BOND
     1     1     2    2
     2     2     3    1
     3     3     4   ar
     4     4     5   ar
     5     5     6   ar
     6     6     7   ar
     7     7     8   ar
     8     3     8   ar
     9     2     9    1
    10     9    10   ar
    11    10    11   ar
    12    11    12   ar
    13    12    13   ar
    14    13    14   ar
    15     9    14   ar
    16    13    15    1
    17    15    16    1
    18    16    17    2
    19    16    18    2
    20    16    19    1
    21    19    20    1
    22    19    21    1
@<TRIPOS>MOLECULE
*****
 20 21 0 0 0
SMALL
GASTEIGER

@<TRIPOS>ATOM
      1 O           0.0000    0.0000    0.0000 O.3     1  UNL1       -0.2176
      2 C           0.0000    0.0000    0.0000 C.3     1  UNL1        0.2137
      3 C           0.0000    0.0000    0.0000 C.3     1  UNL1        0.1796
      4 O           0.0000    0.0000    0.0000 O.3     1  UNL1       -0.3328
      5 C           0.0000    0.0000    0.0000 C.3     1  UNL1        0.2103
      6 C           0.0000    0.0000    0.0000 C.3     1  UNL1        0.0883
      7 C           0.0000    0.0000    0.0000 C.3     1  UNL1        0.2213
      8 N           0.0000    0.0000    0.0000 N.2     1  UNL1        0.0897
      9 N           0.0000    0.0000    0.0000 N.2     1  UNL1       -0.0140
     10 N           0.0000    0.0000    0.0000 N.2     1  UNL1       -0.3281
     11 N           0.0000    0.0000    0.0000 N.ar    1  UNL1       -0.2574
     12 C           0.0000    0.0000    0.0000 C.ar    1  UNL1        0.0823
     13 C           0.0000    0.0000    0.0000 C.ar    1  UNL1        0.0515
     14 C           0.0000    0.0000    0.0000 C.3     1  UNL1        0.0376
     15 C           0.0000    0.0000    0.0000 C.ar    1  UNL1        0.2584
     16 O           0.0000    0.0000    0.0000 O.2     1  UNL1       -0.2674
     17 N           0.0000    0.0000    0.0000 N.ar    1  UNL1       -0.2746
     18 H           0.0000    0.0000    0.0000 H       1  UNL1        0.1734
     19 C           0.0000    0.0000    0.0000 C.ar    1  UNL1        0.3322
     20 O           0.0000    0.0000    0.0000 O.2     1  UNL1       -0.2464
@<TRIPOS>BOND
     1     1     2    1
     2     2     3    1
     3     3     4    1
     4     4     5    1
     5     5     6    1
     6     6     7    1
     7     3     7    1
     8     7     8    1
     9     8     9    2
    10     9    10    2
    11     5    11    1
    12    11    12   ar
    13    12    13   ar
    14    13    14    1
    15    13    15   ar
    16    15    16    2
    17    15    17   ar
    18    17    18    1
    19    17    19   ar
    20    11    19   ar
    21    19    20    2
@<TRIPOS>MOLECULE
*****
 25 26 0 0 0
SMALL
GASTEIGER

@<TRIPOS>ATOM
      1 C           0.0000    0.0000    0.0000 C.3     1  UNL1        0.2525
      2 O           0.0000    0.0000    0.0000 O.3     1  UNL1       -0.4714
      3 C           0.0000    0.0000    0.0000 C.ar    1  UNL1        0.1387
      4 C           0.0000    0.0000    0.0000 C.ar    1  UNL1        0.0369
      5 C           0.0000    0.0000    0.0000 C.ar    1  UNL1        0.0031
      6 C           0.0000    0.0000    0.0000 C.ar    1  UNL1       -0.0001
      7 C           0.0000    0.0000    0.0000 C.ar    1  UNL1        0.0030
      8 C           0.0000    0.0000    0.0000 C.ar    1  UNL1        0.0369
      9 C           0.0000    0.0000    0.0000 C.ar    1  UNL1       -0.0002
     10 C           0.0000    0.0000    0.0000 C.ar    1  UNL1       -0.0037
     11 C           0.0000    0.0000    0.0000 C.ar    1  UNL1       -0.0120
     12 C           0.0000    0.0000    0.0000 C.ar    1  UNL1       -0.0037
     13 C           0.0000    0.0000    0.0000 C.3     1  UNL1        0.1213
     14 C           0.0000    0.0000    0.0000 C.2     1  UNL1        0.3206
     15 O           0.0000    0.0000    0.0000 O.2     1  UNL1       -0.2498
     16 O           0.0000    0.0000    0.0000 O.3     1  UNL1       -0.4483
     17 C           0.0000    0.0000    0.0000 C.3     1  UNL1        0.2086
     18 C           0.0000    0.0000    0.0000 C.3     1  UNL1        0.0514
     19 C           0.0000    0.0000    0.0000 C.3     1  UNL1        0.0543
     20 C           0.0000    0.0000    0.0000 C.3     1  UNL1        0.2433
     21 O           0.0000    0.0000    0.0000 O.2     1  UNL1       -0.3358
     22 N           0.0000    0.0000    0.0000 N.pl3   1  UNL1        0.2181
     23 O           0.0000    0.0000    0.0000 O.2     1  UNL1       -0.0900
     24 O           0.0000    0.0000    0.0000 O.2     1  UNL1       -0.0900
     25 C           0.0000    0.0000    0.0000 C.3     1  UNL1        0.0164
@<TRIPOS>BOND
     1     1     2    1
     2     2     3    1
     3     3     4   ar
     4     4     5   ar
     5     5     6   ar
     6     6     7   ar
     7     7     8   ar
     8     3     8   ar
     9     7     9   ar
    10     9    10   ar
    11    10    11   ar
    12    11    12   ar
    13     6    12   ar
    14    11    13    1
    15    13    14    1
    16    14    15    2
    17    14    16    1
    18    16    17    1
    19    17    18    1
    20    18    19    1
    21    19    20    1
    22    20    21    1
    23    21    22    1
    24    22    23    2
    25    22    24    2
    26    13    25    1
@<TRIPOS>MOLECULE
*****
 24 26 0 0 0
SMALL
GASTEIGER

@<TRIPOS>ATOM
      1 C           0.0000    0.0000    0.0000 C.3     1  UNL1        0.2525
      2 O           0.0000    0.0000    0.0000 O.3     1  UNL1       -0.4714
      3 C           0.0000    0.0000    0.0000 C.ar    1  UNL1        0.1401
      4 C           0.0000    0.0000    0.0000 C.ar    1  UNL1        0.0352
      5 C           0.0000    0.0000    0.0000 C.ar    1  UNL1       -0.0194
      6 C           0.0000    0.0000    0.0000 C.ar    1  UNL1       -0.0996
      7 C           0.0000    0.0000    0.0000 C.ar    1  UNL1        0.0607
      8 C           0.0000    0.0000    0.0000 C.ar    1  UNL1        0.0541
      9 N           0.0000    0.0000    0.0000 N.ar    1  UNL1       -0.2623
     10 C           0.0000    0.0000    0.0000 C.ar    1  UNL1        0.0252
     11 N           0.0000    0.0000    0.0000 N.ar    1  UNL1       -0.6347
     12 S           0.0000    0.0000    0.0000 S.O     1  UNL1        0.0661
     13 O           0.0000    0.0000    0.0000 O.2     1  UNL1       -0.2514
     14 C           0.0000    0.0000    0.0000 C.3     1  UNL1        0.1412
     15 C           0.0000    0.0000    0.0000 C.ar    1  UNL1        0.0718
     16 N           0.0000    0.0000    0.0000 N.ar    1  UNL1       -0.2476
     17 C           0.0000    0.0000    0.0000 C.ar    1  UNL1        0.0972
     18 C           0.0000    0.0000    0.0000 C.ar    1  UNL1        0.0309
     19 C           0.0000    0.0000    0.0000 C.ar    1  UNL1        0.1333
     20 C           0.0000    0.0000    0.0000 C.ar    1  UNL1        0.0263
     21 C           0.0000    0.0000    0.0000 C.3     1  UNL1        0.0355
     22 O           0.0000    0.0000    0.0000 O.3     1  UNL1       -0.4720
     23 C           0.0000    0.0000    0.0000 C.3     1  UNL1        0.2524
     24 C           0.0000    0.0000    0.0000 C.3     1  UNL1        0.0358
@<TRIPOS>BOND
     1     1     2    1
     2     2     3    1
     3     3     4   ar
     4     4     5   ar
     5     5     6   ar
     6     6     7   ar
     7     7     8   ar
     8     3     8   ar
     9     7     9   ar
    10     9    10   ar
    11    10    11   ar
    12     6    11   ar
    13    10    12    1
    14    12    13    2
    15    12    14    1
    16    14    15    1
    17    15    16   ar
    18    16    17   ar
    19    17    18   ar
    20    18    19   ar
    21    19    20   ar
    22    15    20   ar
    23    20    21    1
    24    19    22    1
    25    22    23    1
    26    18    24    1
@<TRIPOS>MOLECULE
*****
 17 16 0 0 0
SMALL
GASTEIGER

@<TRIPOS>ATOM
      1 S           0.0000    0.0000    0.0000 S.3     1  UNL1       -0.7842
      2 C           0.0000    0.0000    0.0000 C.3     1  UNL1       -0.1342
      3 C           0.0000    0.0000    0.0000 C.2     1  UNL1        0.0274
      4 O           0.0000    0.0000    0.0000 O.2     1  UNL1       -0.3199
      5 N           0.0000    0.0000    0.0000 N.am    1  UNL1       -0.6349
      6 C           0.0000    0.0000    0.0000 C.3     1  UNL1       -0.0797
      7 C           0.0000    0.0000    0.0000 C.2     1  UNL1        0.0338
      8 O           0.0000    0.0000    0.0000 O.2     1  UNL1       -0.3195
      9 N           0.0000    0.0000    0.0000 N.am    1  UNL1       -0.6346
     10 C           0.0000    0.0000    0.0000 C.3     1  UNL1       -0.0797
     11 C           0.0000    0.0000    0.0000 C.2     1  UNL1        0.0338
     12 O           0.0000    0.0000    0.0000 O.2     1  UNL1       -0.3195
     13 N           0.0000    0.0000    0.0000 N.am    1  UNL1       -0.6347
     14 C           0.0000    0.0000    0.0000 C.3     1  UNL1       -0.0811
     15 C           0.0000    0.0000    0.0000 C.2     1  UNL1        0.0288
     16 O           0.0000    0.0000    0.0000 O.co2   1  UNL1       -0.5509
     17 O           0.0000    0.0000    0.0000 O.co2   1  UNL1       -0.5509
@<TRIPOS>BOND
     1     1     2    1
     2     2     3    1
     3     3     4    2
     4     3     5    1
     5     5     6    1
     6     6     7    1
     7     7     8    2
     8     7     9    1
     9     9    10    1
    10    10    11    1
    11    11    12    2
    12    11    13    1
    13    13    14    1
    14    14    15    1
    15    15    16   ar
    16    15    17   ar
@<TRIPOS>MOLECULE
*****
 19 20 0 0 0
SMALL
GASTEIGER

@<TRIPOS>ATOM
      1 O           0.0000    0.0000    0.0000 O.3     1  UNL1       -0.2162
      2 C           0.0000    0.0000    0.0000 C.3     1  UNL1        0.2293
      3 C           0.0000    0.0000    0.0000 C.3     1  UNL1        0.2444
      4 O           0.0000    0.0000    0.0000 O.3     1  UNL1       -0.4383
      5 C           0.0000    0.0000    0.0000 C.2     1  UNL1        0.4131
      6 O           0.0000    0.0000    0.0000 O.2     1  UNL1       -0.2379
      7 C           0.0000    0.0000    0.0000 C.ar    1  UNL1        0.3729
      8 C           0.0000    0.0000    0.0000 C.ar    1  UNL1        0.2856
      9 C           0.0000    0.0000    0.0000 C.3     1  UNL1        0.1162
     10 N           0.0000    0.0000    0.0000 N.ar    1  UNL1       -0.1554
     11 O           0.0000    0.0000    0.0000 O.co2   1  UNL1       -0.6189
     12 C           0.0000    0.0000    0.0000 C.ar    1  UNL1        0.3015
     13 C           0.0000    0.0000    0.0000 C.ar    1  UNL1        0.3019
     14 N           0.0000    0.0000    0.0000 N.ar    1  UNL1       -0.1467
     15 O           0.0000    0.0000    0.0000 O.co2   1  UNL1       -0.6186
     16 C           0.0000    0.0000    0.0000 C.ar    1  UNL1        0.0770
     17 C           0.0000    0.0000    0.0000 C.ar    1  UNL1        0.0066
     18 C           0.0000    0.0000    0.0000 C.ar    1  UNL1        0.0066
     19 C           0.0000    0.0000    0.0000 C.ar    1  UNL1        0.0770
@<TRIPOS>BOND
     1     1     2    1
     2     2     3    1
     3     3     4    1
     4     4     5    1
     5     5     6    2
     6     5     7    1
     7     7     8   ar
     8     8     9    1
     9     8    10   ar
    10    10    11    1
    11    10    12   ar
    12    12    13   ar
    13    13    14   ar
    14     7    14   ar
    15    14    15    1
    16    13    16   ar
    17    16    17   ar
    18    17    18   ar
    19    18    19   ar
    20    12    19   ar
@<TRIPOS>MOLECULE
*****
 19 20 0 0 0
SMALL
GASTEIGER

@<TRIPOS>ATOM
      1 O           0.0000    0.0000    0.0000 O.3     1  UNL1       -0.2184
      2 C           0.0000    0.0000    0.0000 C.3     1  UNL1        0.2054
      3 C           0.0000    0.0000    0.0000 C.3     1  UNL1        0.1511
      4 N           0.0000    0.0000    0.0000 N.am    1  UNL1       -0.1936
      5 C           0.0000    0.0000    0.0000 C.2     1  UNL1        0.3358
      6 O           0.0000    0.0000    0.0000 O.2     1  UNL1       -0.2615
      7 C           0.0000    0.0000    0.0000 C.ar    1  UNL1        0.3522
      8 C           0.0000    0.0000    0.0000 C.ar    1  UNL1        0.2836
      9 C           0.0000    0.0000    0.0000 C.3     1  UNL1        0.1162
     10 N           0.0000    0.0000    0.0000 N.ar    1  UNL1       -0.1555
     11 O           0.0000    0.0000    0.0000 O.co2   1  UNL1       -0.6189
     12 C           0.0000    0.0000    0.0000 C.ar    1  UNL1        0.3015
     13 C           0.0000    0.0000    0.0000 C.ar    1  UNL1        0.3018
     14 N           0.0000    0.0000    0.0000 N.ar    1  UNL1       -0.1483
     15 O           0.0000    0.0000    0.0000 O.co2   1  UNL1       -0.6186
     16 C           0.0000    0.0000    0.0000 C.ar    1  UNL1        0.0770
     17 C           0.0000    0.0000    0.0000 C.ar    1  UNL1        0.0066
     18 C           0.0000    0.0000    0.0000 C.ar    1  UNL1        0.0066
     19 C           0.0000    0.0000    0.0000 C.ar    1  UNL1        0.0770
@<TRIPOS>BOND
     1     1     2    1
     2     2     3    1
     3     3     4    1
     4     4     5   am
     5     5     6    2
     6     5     7    1
     7     7     8   ar
     8     8     9    1
     9     8    10   ar
    10    10    11    1
    11    10    12   ar
    12    12    13   ar
    13    13    14   ar
    14     7    14   ar
    15    14    15    1
    16    13    16   ar
    17    16    17   ar
    18    17    18   ar
    19    18    19   ar
    20    12    19   ar
@<TRIPOS>MOLECULE
*****
 24 26 0 0 0
SMALL
GASTEIGER

@<TRIPOS>ATOM
      1 C           0.0000    0.0000    0.0000 C.3     1  UNL1        0.2525
      2 O           0.0000    0.0000    0.0000 O.3     1  UNL1       -0.4714
      3 C           0.0000    0.0000    0.0000 C.ar    1  UNL1        0.1387
      4 C           0.0000    0.0000    0.0000 C.ar    1  UNL1        0.0369
      5 C           0.0000    0.0000    0.0000 C.ar    1  UNL1        0.0044
      6 C           0.0000    0.0000    0.0000 C.ar    1  UNL1        0.0158
      7 C           0.0000    0.0000    0.0000 C.ar    1  UNL1        0.0044
      8 C           0.0000    0.0000    0.0000 C.ar    1  UNL1        0.0369
      9 C           0.0000    0.0000    0.0000 C.2     1  UNL1        0.0834
     10 O           0.0000    0.0000    0.0000 O.2     1  UNL1       -0.3129
     11 N           0.0000    0.0000    0.0000 N.am    1  UNL1       -0.5733
     12 C           0.0000    0.0000    0.0000 C.ar    1  UNL1        0.1445
     13 O           0.0000    0.0000    0.0000 O.2     1  UNL1       -0.3216
     14 N           0.0000    0.0000    0.0000 N.ar    1  UNL1        0.2301
     15 N           0.0000    0.0000    0.0000 N.ar    1  UNL1        0.0758
     16 C           0.0000    0.0000    0.0000 C.ar    1  UNL1        0.3681
     17 N           0.0000    0.0000    0.0000 N.pl3   1  UNL1       -0.0909
     18 C           0.0000    0.0000    0.0000 C.3     1  UNL1        0.1344
     19 C           0.0000    0.0000    0.0000 C.3     1  UNL1        0.0274
     20 C           0.0000    0.0000    0.0000 C.3     1  UNL1        0.0256
     21 C           0.0000    0.0000    0.0000 C.3     1  UNL1        0.0038
     22 C           0.0000    0.0000    0.0000 C.3     1  UNL1        0.0256
     23 C           0.0000    0.0000    0.0000 C.3     1  UNL1        0.1344
     24 C           0.0000    0.0000    0.0000 C.3     1  UNL1        0.0274
@<TRIPOS>BOND
     1     1     2    1
     2     2     3    1
     3     3     4   ar
     4     4     5   ar
     5     5     6   ar
     6     6     7   ar
     7     7     8   ar
     8     3     8   ar
     9     6     9    1
    10     9    10    2
    11     9    11    1
    12    11    12    1
    13    12    13   ar
    14    13    14   ar
    15    14    15   ar
    16    15    16   ar
    17    12    16   ar
    18    15    17    1
    19    17    18    1
    20    18    19    1
    21    18    20    1
    22    20    21    1
    23    21    22    1
    24    22    23    1
    25    17    23    1
    26    23    24    1
@<TRIPOS>MOLECULE
*****
 20 21 0 0 0
SMALL
GASTEIGER

@<TRIPOS>ATOM
      1 CL          0.0000    0.0000    0.0000 Cl      1  UNL1       -0.0822
      2 C           0.0000    0.0000    0.0000 C.ar    1  UNL1        0.0585
      3 C           0.0000    0.0000    0.0000 C.ar    1  UNL1        0.0115
      4 C           0.0000    0.0000    0.0000 C.ar    1  UNL1        0.0030
      5 C           0.0000    0.0000    0.0000 C.ar    1  UNL1        0.0270
      6 C           0.0000    0.0000    0.0000 C.ar    1  UNL1        0.0597
      7 C           0.0000    0.0000    0.0000 C.ar    1  UNL1        0.0228
      8 CL          0.0000    0.0000    0.0000 Cl      1  UNL1       -0.0822
      9 C           0.0000    0.0000    0.0000 C.2     1  UNL1        0.0944
     10 O           0.0000    0.0000    0.0000 O.2     1  UNL1       -0.3120
     11 N           0.0000    0.0000    0.0000 N.am    1  UNL1       -0.5018
     12 S           0.0000    0.0000    0.0000 S.O2    1  UNL1       -0.0501
     13 O           0.0000    0.0000    0.0000 O.2     1  UNL1       -0.1836
     14 O           0.0000    0.0000    0.0000 O.2     1  UNL1       -0.1836
     15 C           0.0000    0.0000    0.0000 C.ar    1  UNL1        0.1192
     16 C           0.0000    0.0000    0.0000 C.ar    1  UNL1        0.0246
     17 C           0.0000    0.0000    0.0000 C.ar    1  UNL1        0.0151
     18 C           0.0000    0.0000    0.0000 C.ar    1  UNL1        0.0650
     19 S           0.0000    0.0000    0.0000 S.2     1  UNL1       -0.0633
     20 BR          0.0000    0.0000    0.0000 Br      1  UNL1       -0.0419
@<TRIPOS>BOND
     1     1     2    1
     2     2     3   ar
     3     3     4   ar
     4     4     5   ar
     5     5     6   ar
     6     6     7   ar
     7     2     7   ar
     8     6     8    1
     9     5     9    1
    10     9    10    2
    11     9    11    1
    12    11    12    1
    13    12    13    2
    14    12    14    2
    15    12    15    1
    16    15    16   ar
    17    16    17   ar
    18    17    18   ar
    19    18    19   ar
    20    15    19   ar
    21    18    20    1
@<TRIPOS>MOLECULE
*****
 25 28 0 0 0
SMALL
GASTEIGER

@<TRIPOS>ATOM
      1 O           0.0000    0.0000    0.0000 O.2     1  UNL1       -0.3062
      2 C           0.0000    0.0000    0.0000 C.2     1  UNL1        0.1101
      3 N           0.0000    0.0000    0.0000 N.am    1  UNL1       -0.5749
      4 C           0.0000    0.0000    0.0000 C.2     1  UNL1        0.0710
      5 O           0.0000    0.0000    0.0000 O.2     1  UNL1       -0.3166
      6 C           0.0000    0.0000    0.0000 C.3     1  UNL1        0.0953
      7 S           0.0000    0.0000    0.0000 S.3     1  UNL1       -0.0919
      8 C           0.0000    0.0000    0.0000 C.3     1  UNL1        0.0432
      9 C           0.0000    0.0000    0.0000 C.ar    1  UNL1       -0.0211
     10 C           0.0000    0.0000    0.0000 C.ar    1  UNL1       -0.0011
     11 C           0.0000    0.0000    0.0000 C.ar    1  UNL1        0.0362
     12 C           0.0000    0.0000    0.0000 C.ar    1  UNL1        0.1343
     13 C           0.0000    0.0000    0.0000 C.ar    1  UNL1        0.0116
     14 C           0.0000    0.0000    0.0000 C.ar    1  UNL1       -0.0055
     15 C           0.0000    0.0000    0.0000 C.3     1  UNL1        0.0331
     16 C           0.0000    0.0000    0.0000 C.3     1  UNL1        0.0487
     17 C           0.0000    0.0000    0.0000 C.3     1  UNL1        0.1705
     18 O           0.0000    0.0000    0.0000 O.3     1  UNL1       -0.4791
     19 C           0.0000    0.0000    0.0000 C.3     1  UNL1        0.0698
     20 C           0.0000    0.0000    0.0000 C.ar    1  UNL1       -0.0186
     21 C           0.0000    0.0000    0.0000 C.ar    1  UNL1       -0.0041
     22 C           0.0000    0.0000    0.0000 C.ar    1  UNL1       -0.0003
     23 C           0.0000    0.0000    0.0000 C.ar    1  UNL1       -0.0000
     24 C           0.0000    0.0000    0.0000 C.ar    1  UNL1       -0.0003
     25 C           0.0000    0.0000    0.0000 C.ar    1  UNL1       -0.0041
@<TRIPOS>BOND
     1     1     2    2
     2     2     3    1
     3     3     4    1
     4     4     5    2
     5     4     6    1
     6     6     7    1
     7     2     7    1
     8     6     8    1
     9     8     9    1
    10     9    10   ar
    11    10    11   ar
    12    11    12   ar
    13    12    13   ar
    14    13    14   ar
    15     9    14   ar
    16    13    15    1
    17    15    16    1
    18    16    17    1
    19    17    18    1
    20    12    18    1
    21    17    19    1
    22    19    20    1
    23    20    21   ar
    24    21    22   ar
    25    22    23   ar
    26    23    24   ar
    27    24    25   ar
    28    20    25   ar
@<TRIPOS>MOLECULE
*****
 24 25 0 0 0
SMALL
GASTEIGER

@<TRIPOS>ATOM
      1 C           0.0000    0.0000    0.0000 C.3     1  UNL1        0.2526
      2 O           0.0000    0.0000    0.0000 O.3     1  UNL1       -0.4692
      3 C           0.0000    0.0000    0.0000 C.ar    1  UNL1        0.1658
      4 C           0.0000    0.0000    0.0000 C.ar    1  UNL1        0.0374
      5 C           0.0000    0.0000    0.0000 C.ar    1  UNL1       -0.0206
      6 C           0.0000    0.0000    0.0000 C.ar    1  UNL1       -0.1099
      7 C           0.0000    0.0000    0.0000 C.ar    1  UNL1        0.0090
      8 C           0.0000    0.0000    0.0000 C.ar    1  UNL1        0.1720
      9 F           0.0000    0.0000    0.0000 F       1  UNL1       -0.2010
     10 N           0.0000    0.0000    0.0000 N.pl3   1  UNL1       -0.5356
     11 S           0.0000    0.0000    0.0000 S.O2    1  UNL1       -0.0533
     12 O           0.0000    0.0000    0.0000 O.2     1  UNL1       -0.1840
     13 O           0.0000    0.0000    0.0000 O.2     1  UNL1       -0.1840
     14 C           0.0000    0.0000    0.0000 C.ar    1  UNL1        0.1486
     15 C           0.0000    0.0000    0.0000 C.ar    1  UNL1        0.1875
     16 F           0.0000    0.0000    0.0000 F       1  UNL1       -0.2003
     17 C           0.0000    0.0000    0.0000 C.ar    1  UNL1        0.1982
     18 F           0.0000    0.0000    0.0000 F       1  UNL1       -0.1993
     19 C           0.0000    0.0000    0.0000 C.ar    1  UNL1        0.1992
     20 C           0.0000    0.0000    0.0000 C.ar    1  UNL1        0.1982
     21 C           0.0000    0.0000    0.0000 C.ar    1  UNL1        0.1875
     22 F           0.0000    0.0000    0.0000 F       1  UNL1       -0.2003
     23 F           0.0000    0.0000    0.0000 F       1  UNL1       -0.1993
     24 F           0.0000    0.0000    0.0000 F       1  UNL1       -0.1993
@<TRIPOS>BOND
     1     1     2    1
     2     2     3    1
     3     3     4   ar
     4     4     5   ar
     5     5     6   ar
     6     6     7   ar
     7     7     8   ar
     8     3     8   ar
     9     8     9    1
    10     6    10    1
    11    10    11    1
    12    11    12    2
    13    11    13    2
    14    11    14    1
    15    14    15   ar
    16    15    16    1
    17    15    17   ar
    18    17    18    1
    19    17    19   ar
    20    19    20   ar
    21    20    21   ar
    22    14    21   ar
    23    21    22    1
    24    20    23    1
    25    19    24    1
@<TRIPOS>MOLECULE
*****
 30 33 0 0 0
SMALL
GASTEIGER

@<TRIPOS>ATOM
      1 C           0.0000    0.0000    0.0000 C.3     1  UNL1        0.0000
      2 C           0.0000    0.0000    0.0000 C.3     1  UNL1        0.0005
      3 C           0.0000    0.0000    0.0000 C.3     1  UNL1        0.0079
      4 C           0.0000    0.0000    0.0000 C.3     1  UNL1        0.0640
      5 C           0.0000    0.0000    0.0000 C.ar    1  UNL1        0.1214
      6 N           0.0000    0.0000    0.0000 N.ar    1  UNL1       -0.2198
      7 C           0.0000    0.0000    0.0000 C.ar    1  UNL1        0.1537
      8 C           0.0000    0.0000    0.0000 C.ar    1  UNL1        0.1004
      9 N           0.0000    0.0000    0.0000 N.ar    1  UNL1       -0.3112
     10 C           0.0000    0.0000    0.0000 C.3     1  UNL1        0.1337
     11 C           0.0000    0.0000    0.0000 C.ar    1  UNL1        0.0004
     12 C           0.0000    0.0000    0.0000 C.ar    1  UNL1       -0.0024
     13 C           0.0000    0.0000    0.0000 C.ar    1  UNL1       -0.0003
     14 C           0.0000    0.0000    0.0000 C.ar    1  UNL1       -0.0006
     15 C           0.0000    0.0000    0.0000 C.ar    1  UNL1       -0.0003
     16 C           0.0000    0.0000    0.0000 C.ar    1  UNL1       -0.0024
     17 C           0.0000    0.0000    0.0000 C.ar    1  UNL1       -0.0060
     18 C           0.0000    0.0000    0.0000 C.ar    1  UNL1       -0.0006
     19 C           0.0000    0.0000    0.0000 C.ar    1  UNL1       -0.0000
     20 C           0.0000    0.0000    0.0000 C.ar    1  UNL1       -0.0006
     21 C           0.0000    0.0000    0.0000 C.ar    1  UNL1       -0.0066
     22 C           0.0000    0.0000    0.0000 C.ar    1  UNL1       -0.0150
     23 C           0.0000    0.0000    0.0000 C.ar    1  UNL1        0.0444
     24 N           0.0000    0.0000    0.0000 N.ar    1  UNL1       -0.2895
     25 N           0.0000    0.0000    0.0000 N.ar    1  UNL1       -0.2180
     26 N           0.0000    0.0000    0.0000 N.ar    1  UNL1       -0.2180
     27 N           0.0000    0.0000    0.0000 N.ar    1  UNL1       -0.2895
     28 C           0.0000    0.0000    0.0000 C.3     1  UNL1        0.2279
     29 O           0.0000    0.0000    0.0000 O.3     1  UNL1       -0.2134
     30 CL          0.0000    0.0000    0.0000 Cl      1  UNL1       -0.0600
@<TRIPOS>BOND
     1     1     2    1
     2     2     3    1
     3     3     4    1
     4     4     5    1
     5     5     6   ar
     6     6     7   ar
     7     7     8   ar
     8     8     9   ar
     9     5     9   ar
    10     9    10    1
    11    10    11    1
    12    11    12   ar
    13    12    13   ar
    14    13    14   ar
    15    14    15   ar
    16    15    16   ar
    17    11    16   ar
    18    14    17    1
    19    17    18   ar
    20    18    19   ar
    21    19    20   ar
    22    20    21   ar
    23    21    22   ar
    24    17    22   ar
    25    22    23    1
    26    23    24   ar
    27    24    25   ar
    28    25    26   ar
    29    26    27   ar
    30    23    27   ar
    31     8    28    1
    32    28    29    1
    33     7    30    1
@<TRIPOS>MOLECULE
*****
 26 28 0 0 0
SMALL
GASTEIGER

@<TRIPOS>ATOM
      1 C           0.0000    0.0000    0.0000 C.3     1  UNL1        0.0064
      2 C           0.0000    0.0000    0.0000 C.3     1  UNL1        0.0442
      3 C           0.0000    0.0000    0.0000 C.2     1  UNL1        0.0704
      4 O           0.0000    0.0000    0.0000 O.2     1  UNL1       -0.3167
      5 N           0.0000    0.0000    0.0000 N.am    1  UNL1       -0.5059
      6 S           0.0000    0.0000    0.0000 S.O2    1  UNL1       -0.0560
      7 O           0.0000    0.0000    0.0000 O.2     1  UNL1       -0.1841
      8 O           0.0000    0.0000    0.0000 O.2     1  UNL1       -0.1841
      9 C           0.0000    0.0000    0.0000 C.ar    1  UNL1        0.0893
     10 C           0.0000    0.0000    0.0000 C.ar    1  UNL1        0.0169
     11 C           0.0000    0.0000    0.0000 C.ar    1  UNL1        0.0014
     12 C           0.0000    0.0000    0.0000 C.ar    1  UNL1        0.0043
     13 C           0.0000    0.0000    0.0000 C.ar    1  UNL1        0.0014
     14 C           0.0000    0.0000    0.0000 C.ar    1  UNL1        0.0169
     15 C           0.0000    0.0000    0.0000 C.ar    1  UNL1        0.0537
     16 C           0.0000    0.0000    0.0000 C.ar    1  UNL1        0.1547
     17 C           0.0000    0.0000    0.0000 C.3     1  UNL1        0.0754
     18 O           0.0000    0.0000    0.0000 O.2     1  UNL1       -0.3578
     19 N           0.0000    0.0000    0.0000 N.ar    1  UNL1       -0.0774
     20 C           0.0000    0.0000    0.0000 C.ar    1  UNL1        0.1225
     21 C           0.0000    0.0000    0.0000 C.ar    1  UNL1        0.0209
     22 C           0.0000    0.0000    0.0000 C.ar    1  UNL1        0.0016
     23 C           0.0000    0.0000    0.0000 C.ar    1  UNL1        0.0000
     24 C           0.0000    0.0000    0.0000 C.ar    1  UNL1        0.0000
     25 C           0.0000    0.0000    0.0000 C.ar    1  UNL1        0.0000
     26 C           0.0000    0.0000    0.0000 C.ar    1  UNL1        0.0016
@<TRIPOS>BOND
     1     1     2    1
     2     2     3    1
     3     3     4    2
     4     3     5    1
     5     5     6    1
     6     6     7    2
     7     6     8    2
     8     6     9    1
     9     9    10   ar
    10    10    11   ar
    11    11    12   ar
    12    12    13   ar
    13    13    14   ar
    14     9    14   ar
    15    12    15    1
    16    15    16   ar
    17    16    17    1
    18    16    18   ar
    19    18    19   ar
    20    19    20   ar
    21    15    20   ar
    22    20    21    1
    23    21    22   ar
    24    22    23   ar
    25    23    24   ar
    26    24    25   ar
    27    25    26   ar
    28    21    26   ar
@<TRIPOS>MOLECULE
*****
 21 21 0 0 0
SMALL
GASTEIGER

@<TRIPOS>ATOM
      1 O           0.0000    0.0000    0.0000 O.3     1  UNK1       -0.2184
      2 C           0.0000    0.0000    0.0000 C.3     1  UNK1        0.2065
      3 C           0.0000    0.0000    0.0000 C.3     1  UNK1        0.1626
      4 C           0.0000    0.0000    0.0000 C.3     1  UNK1        0.1966
      5 C           0.0000    0.0000    0.0000 C.ar    1  UNK1        0.0099
      6 C           0.0000    0.0000    0.0000 C.ar    1  UNK1        0.0045
      7 C           0.0000    0.0000    0.0000 C.ar    1  UNK1        0.0750
      8 C           0.0000    0.0000    0.0000 C.ar    1  UNK1        0.2900
      9 C           0.0000    0.0000    0.0000 C.ar    1  UNK1        0.0750
     10 C           0.0000    0.0000    0.0000 C.ar    1  UNK1        0.0045
     11 N           0.0000    0.0000    0.0000 N.pl3   1  UNK1        0.0809
     12 O           0.0000    0.0000    0.0000 O.2     1  UNK1        0.0415
     13 O           0.0000    0.0000    0.0000 O.co2   1  UNK1       -0.5760
     14 O           0.0000    0.0000    0.0000 O.3     1  UNK1       -0.2163
     15 N           0.0000    0.0000    0.0000 N.am    1  UNK1       -0.1996
     16 C           0.0000    0.0000    0.0000 C.2     0  UNK0        0.2739
     17 O           0.0000    0.0000    0.0000 O.2     0  UNK0       -0.2709
     18 C           0.0000    0.0000    0.0000 C.3     0  UNK0        0.3023
     19 N           0.0000    0.0000    0.0000 N.2     0  UNK0        0.0994
     20 N           0.0000    0.0000    0.0000 N.2     0  UNK0       -0.0135
     21 N           0.0000    0.0000    0.0000 N.2     0  UNK0       -0.3281
@<TRIPOS>BOND
     1     1     2    1
     2     2     3    1
     3     3     4    1
     4     4     5    1
     5     5     6   ar
     6     6     7   ar
     7     7     8   ar
     8     8     9   ar
     9     9    10   ar
    10     5    10   ar
    11     8    11    1
    12    11    12    2
    13    11    13    1
    14     4    14    1
    15     3    15    1
    16    15    16   am
    17    16    17    2
    18    16    18    1
    19    18    19    1
    20    19    20    2
    21    20    21    2
@<TRIPOS>MOLECULE
*****
 24 25 0 0 0
SMALL
GASTEIGER

@<TRIPOS>ATOM
      1 C           0.0000    0.0000    0.0000 C.3     1  UNL1        0.0502
      2 C           0.0000    0.0000    0.0000 C.2     1  UNL1        0.0708
      3 O           0.0000    0.0000    0.0000 O.2     1  UNL1       -0.3167
      4 N           0.0000    0.0000    0.0000 N.am    1  UNL1       -0.5058
      5 S           0.0000    0.0000    0.0000 S.O2    1  UNL1       -0.0547
      6 O           0.0000    0.0000    0.0000 O.2     1  UNL1       -0.1841
      7 O           0.0000    0.0000    0.0000 O.2     1  UNL1       -0.1841
      8 C           0.0000    0.0000    0.0000 C.ar    1  UNL1        0.1081
      9 C           0.0000    0.0000    0.0000 C.ar    1  UNL1        0.0363
     10 C           0.0000    0.0000    0.0000 C.ar    1  UNL1        0.0904
     11 N           0.0000    0.0000    0.0000 N.pl3   1  UNL1       -0.1280
     12 C           0.0000    0.0000    0.0000 C.ar    1  UNL1        0.0195
     13 C           0.0000    0.0000    0.0000 C.ar    1  UNL1        0.0214
     14 C           0.0000    0.0000    0.0000 C.ar    1  UNL1        0.1260
     15 S           0.0000    0.0000    0.0000 S.O2    1  UNL1        0.0286
     16 O           0.0000    0.0000    0.0000 O.2     1  UNL1       -0.1642
     17 O           0.0000    0.0000    0.0000 O.2     1  UNL1       -0.1642
     18 C           0.0000    0.0000    0.0000 C.ar    1  UNL1        0.1104
     19 C           0.0000    0.0000    0.0000 C.ar    1  UNL1        0.0201
     20 C           0.0000    0.0000    0.0000 C.ar    1  UNL1        0.0194
     21 C           0.0000    0.0000    0.0000 C.ar    1  UNL1        0.0892
     22 C           0.0000    0.0000    0.0000 C.ar    1  UNL1        0.0194
     23 C           0.0000    0.0000    0.0000 C.ar    1  UNL1        0.0201
     24 N           0.0000    0.0000    0.0000 N.pl3   1  UNL1       -0.1281
@<TRIPOS>BOND
     1     1     2    1
     2     2     3    2
     3     2     4    1
     4     4     5    1
     5     5     6    2
     6     5     7    2
     7     5     8    1
     8     8     9   ar
     9     9    10   ar
    10    10    11    1
    11    10    12   ar
    12    12    13   ar
    13    13    14   ar
    14     8    14   ar
    15    14    15    1
    16    15    16    2
    17    15    17    2
    18    15    18    1
    19    18    19   ar
    20    19    20   ar
    21    20    21   ar
    22    21    22   ar
    23    22    23   ar
    24    18    23   ar
    25    21    24    1
@<TRIPOS>MOLECULE
*****
 25 26 0 0 0
SMALL
GASTEIGER

@<TRIPOS>ATOM
      1 O           0.0000    0.0000    0.0000 O.co2   1  UNL1       -0.4149
      2 S           0.0000    0.0000    0.0000 S.3     1  UNL1       -0.1996
      3 O           0.0000    0.0000    0.0000 O.2     1  UNL1       -0.4871
      4 C           0.0000    0.0000    0.0000 C.3     1  UNL1        0.2152
      5 N           0.0000    0.0000    0.0000 N.pl3   1  UNL1       -0.2158
      6 C           0.0000    0.0000    0.0000 C.ar    1  UNL1        0.0673
      7 C           0.0000    0.0000    0.0000 C.ar    1  UNL1        0.0175
      8 C           0.0000    0.0000    0.0000 C.ar    1  UNL1        0.0201
      9 C           0.0000    0.0000    0.0000 C.ar    1  UNL1        0.1104
     10 C           0.0000    0.0000    0.0000 C.ar    1  UNL1        0.0201
     11 C           0.0000    0.0000    0.0000 C.ar    1  UNL1        0.0175
     12 S           0.0000    0.0000    0.0000 S.O2    1  UNL1        0.0274
     13 O           0.0000    0.0000    0.0000 O.2     1  UNL1       -0.1642
     14 O           0.0000    0.0000    0.0000 O.2     1  UNL1       -0.1642
     15 C           0.0000    0.0000    0.0000 C.ar    1  UNL1        0.1104
     16 C           0.0000    0.0000    0.0000 C.ar    1  UNL1        0.0201
     17 C           0.0000    0.0000    0.0000 C.ar    1  UNL1        0.0175
     18 C           0.0000    0.0000    0.0000 C.ar    1  UNL1        0.0673
     19 C           0.0000    0.0000    0.0000 C.ar    1  UNL1        0.0175
     20 C           0.0000    0.0000    0.0000 C.ar    1  UNL1        0.0201
     21 N           0.0000    0.0000    0.0000 N.pl3   1  UNL1       -0.2158
     22 C           0.0000    0.0000    0.0000 C.3     1  UNL1        0.2152
     23 S           0.0000    0.0000    0.0000 S.3     1  UNL1       -0.1996
     24 O           0.0000    0.0000    0.0000 O.2     1  UNL1       -0.4871
     25 O           0.0000    0.0000    0.0000 O.co2   1  UNL1       -0.4149
@<TRIPOS>BOND
     1     1     2    1
     2     2     3    2
     3     2     4    1
     4     4     5    1
     5     5     6    1
     6     6     7   ar
     7     7     8   ar
     8     8     9   ar
     9     9    10   ar
    10    10    11   ar
    11     6    11   ar
    12     9    12    1
    13    12    13    2
    14    12    14    2
    15    12    15    1
    16    15    16   ar
    17    16    17   ar
    18    17    18   ar
    19    18    19   ar
    20    19    20   ar
    21    15    20   ar
    22    18    21    1
    23    21    22    1
    24    22    23    1
    25    23    24    2
    26    23    25    1
@<TRIPOS>MOLECULE
*****
 30 33 0 0 0
SMALL
GASTEIGER

@<TRIPOS>ATOM
      1 N           0.0000    0.0000    0.0000 N.1     1  UNL1       -0.1908
      2 C           0.0000    0.0000    0.0000 C.1     1  UNL1        0.1004
      3 C           0.0000    0.0000    0.0000 C.ar    1  UNL1        0.0686
      4 C           0.0000    0.0000    0.0000 C.ar    1  UNL1        0.0134
      5 C           0.0000    0.0000    0.0000 C.ar    1  UNL1        0.0376
      6 C           0.0000    0.0000    0.0000 C.ar    1  UNL1        0.1387
      7 C           0.0000    0.0000    0.0000 C.ar    1  UNL1        0.0376
      8 C           0.0000    0.0000    0.0000 C.ar    1  UNL1        0.0134
      9 O           0.0000    0.0000    0.0000 O.3     1  UNL1       -0.4726
     10 C           0.0000    0.0000    0.0000 C.3     1  UNL1        0.2419
     11 C           0.0000    0.0000    0.0000 C.3     1  UNL1        0.2386
     12 C           0.0000    0.0000    0.0000 C.3     1  UNL1        0.2419
     13 O           0.0000    0.0000    0.0000 O.3     1  UNL1       -0.4724
     14 C           0.0000    0.0000    0.0000 C.ar    1  UNL1        0.1446
     15 C           0.0000    0.0000    0.0000 C.ar    1  UNL1        0.0372
     16 C           0.0000    0.0000    0.0000 C.ar    1  UNL1        0.0062
     17 C           0.0000    0.0000    0.0000 C.ar    1  UNL1        0.0378
     18 C           0.0000    0.0000    0.0000 C.ar    1  UNL1        0.1504
     19 C           0.0000    0.0000    0.0000 C.ar    1  UNL1        0.1073
     20 C           0.0000    0.0000    0.0000 C.ar    1  UNL1        0.2039
     21 O           0.0000    0.0000    0.0000 O.2     1  UNL1       -0.2863
     22 C           0.0000    0.0000    0.0000 C.ar    1  UNL1        0.0728
     23 C           0.0000    0.0000    0.0000 C.ar    1  UNL1        0.1341
     24 O           0.0000    0.0000    0.0000 O.2     1  UNL1       -0.4595
     25 C           0.0000    0.0000    0.0000 C.ar    1  UNL1        0.0787
     26 N           0.0000    0.0000    0.0000 N.ar    1  UNL1       -0.2864
     27 N           0.0000    0.0000    0.0000 N.ar    1  UNL1       -0.2179
     28 N           0.0000    0.0000    0.0000 N.ar    1  UNL1       -0.2179
     29 N           0.0000    0.0000    0.0000 N.ar    1  UNL1       -0.2864
     30 O           0.0000    0.0000    0.0000 O.3     1  UNL1       -0.2151
@<TRIPOS>BOND
     1     1     2    3
     2     2     3    1
     3     3     4   ar
     4     4     5   ar
     5     5     6   ar
     6     6     7   ar
     7     7     8   ar
     8     3     8   ar
     9     6     9    1
    10     9    10    1
    11    10    11    1
    12    11    12    1
    13    12    13    1
    14    13    14    1
    15    14    15   ar
    16    15    16   ar
    17    16    17   ar
    18    17    18   ar
    19    18    19   ar
    20    14    19   ar
    21    19    20   ar
    22    20    21    2
    23    20    22   ar
    24    22    23   ar
    25    23    24   ar
    26    18    24   ar
    27    23    25    1
    28    25    26   ar
    29    26    27   ar
    30    27    28   ar
    31    28    29   ar
    32    25    29   ar
    33    11    30    1
@<TRIPOS>MOLECULE
*****
 27 29 0 0 0
SMALL
GASTEIGER

@<TRIPOS>ATOM
      1 N           0.0000    0.0000    0.0000 N.2     1  UNL1       -0.3278
      2 N           0.0000    0.0000    0.0000 N.2     1  UNL1       -0.0090
      3 N           0.0000    0.0000    0.0000 N.2     1  UNL1        0.1168
      4 C           0.0000    0.0000    0.0000 C.ar    1  UNL1        0.1641
      5 C           0.0000    0.0000    0.0000 C.ar    1  UNL1        0.0263
      6 C           0.0000    0.0000    0.0000 C.ar    1  UNL1        0.0065
      7 C           0.0000    0.0000    0.0000 C.ar    1  UNL1        0.0566
      8 C           0.0000    0.0000    0.0000 C.ar    1  UNL1        0.0065
      9 C           0.0000    0.0000    0.0000 C.ar    1  UNL1        0.0263
     10 C           0.0000    0.0000    0.0000 C.2     1  UNL1        0.2644
     11 O           0.0000    0.0000    0.0000 O.2     1  UNL1       -0.2666
     12 N           0.0000    0.0000    0.0000 N.ar    1  UNL1       -0.2785
     13 C           0.0000    0.0000    0.0000 C.ar    1  UNL1        0.0664
     14 C           0.0000    0.0000    0.0000 C.ar    1  UNL1        0.0207
     15 C           0.0000    0.0000    0.0000 C.ar    1  UNL1        0.0384
     16 C           0.0000    0.0000    0.0000 C.ar    1  UNL1        0.1388
     17 C           0.0000    0.0000    0.0000 C.ar    1  UNL1        0.0381
     18 C           0.0000    0.0000    0.0000 C.ar    1  UNL1        0.0169
     19 C           0.0000    0.0000    0.0000 C.ar    1  UNL1        0.0027
     20 C           0.0000    0.0000    0.0000 C.ar    1  UNL1        0.0411
     21 C           0.0000    0.0000    0.0000 C.3     1  UNL1        0.0501
     22 C           0.0000    0.0000    0.0000 C.3     1  UNL1        0.1415
     23 C           0.0000    0.0000    0.0000 C.2     1  UNL1        0.3693
     24 O           0.0000    0.0000    0.0000 O.co2   1  UNL1       -0.2453
     25 O           0.0000    0.0000    0.0000 O.co2   1  UNL1       -0.2453
     26 O           0.0000    0.0000    0.0000 O.3     1  UNL1       -0.4714
     27 C           0.0000    0.0000    0.0000 C.3     1  UNL1        0.2525
@<TRIPOS>BOND
     1     1     2    2
     2     2     3    2
     3     3     4    1
     4     4     5   ar
     5     5     6   ar
     6     6     7   ar
     7     7     8   ar
     8     8     9   ar
     9     4     9   ar
    10     7    10    1
    11    10    11    2
    12    10    12   am
    13    12    13   ar
    14    13    14   ar
    15    14    15   ar
    16    15    16   ar
    17    16    17   ar
    18    17    18   ar
    19    13    18   ar
    20    18    19   ar
    21    19    20   ar
    22    12    20   ar
    23    20    21    1
    24    19    22    1
    25    22    23    1
    26    23    24   ar
    27    23    25   ar
    28    16    26    1
    29    26    27    1
@<TRIPOS>MOLECULE
*****
 30 33 0 0 0
SMALL
GASTEIGER

@<TRIPOS>ATOM
      1 O           0.0000    0.0000    0.0000 O.2     1  UNL1       -0.3062
      2 C           0.0000    0.0000    0.0000 C.2     1  UNL1        0.1101
      3 N           0.0000    0.0000    0.0000 N.am    1  UNL1       -0.5749
      4 C           0.0000    0.0000    0.0000 C.2     1  UNL1        0.0710
      5 O           0.0000    0.0000    0.0000 O.2     1  UNL1       -0.3166
      6 C           0.0000    0.0000    0.0000 C.3     1  UNL1        0.0953
      7 S           0.0000    0.0000    0.0000 S.3     1  UNL1       -0.0919
      8 C           0.0000    0.0000    0.0000 C.3     1  UNL1        0.0432
      9 C           0.0000    0.0000    0.0000 C.ar    1  UNL1       -0.0209
     10 C           0.0000    0.0000    0.0000 C.ar    1  UNL1       -0.0041
     11 C           0.0000    0.0000    0.0000 C.ar    1  UNL1        0.0025
     12 C           0.0000    0.0000    0.0000 C.ar    1  UNL1        0.0347
     13 C           0.0000    0.0000    0.0000 C.ar    1  UNL1        0.0025
     14 C           0.0000    0.0000    0.0000 C.ar    1  UNL1       -0.0041
     15 C           0.0000    0.0000    0.0000 C.2     1  UNL1        0.1734
     16 O           0.0000    0.0000    0.0000 O.2     1  UNL1       -0.2913
     17 C           0.0000    0.0000    0.0000 C.3     1  UNL1        0.0755
     18 C           0.0000    0.0000    0.0000 C.3     1  UNL1        0.0568
     19 C           0.0000    0.0000    0.0000 C.ar    1  UNL1        0.0927
     20 N           0.0000    0.0000    0.0000 N.ar    1  UNL1       -0.2130
     21 C           0.0000    0.0000    0.0000 C.ar    1  UNL1        0.2289
     22 O           0.0000    0.0000    0.0000 O.2     1  UNL1       -0.4392
     23 C           0.0000    0.0000    0.0000 C.ar    1  UNL1        0.1386
     24 C           0.0000    0.0000    0.0000 C.3     1  UNL1        0.0738
     25 C           0.0000    0.0000    0.0000 C.ar    1  UNL1        0.0535
     26 C           0.0000    0.0000    0.0000 C.ar    1  UNL1        0.0046
     27 C           0.0000    0.0000    0.0000 C.ar    1  UNL1        0.0002
     28 C           0.0000    0.0000    0.0000 C.ar    1  UNL1        0.0000
     29 C           0.0000    0.0000    0.0000 C.ar    1  UNL1        0.0002
     30 C           0.0000    0.0000    0.0000 C.ar    1  UNL1        0.0046
@<TRIPOS>BOND
     1     1     2    2
     2     2     3    1
     3     3     4    1
     4     4     5    2
     5     4     6    1
     6     6     7    1
     7     2     7    1
     8     6     8    1
     9     8     9    1
    10     9    10   ar
    11    10    11   ar
    12    11    12   ar
    13    12    13   ar
    14    13    14   ar
    15     9    14   ar
    16    12    15    1
    17    15    16    2
    18    15    17    1
    19    17    18    1
    20    18    19    1
    21    19    20   ar
    22    20    21   ar
    23    21    22   ar
    24    22    23   ar
    25    19    23   ar
    26    23    24    1
    27    21    25    1
    28    25    26   ar
    29    26    27   ar
    30    27    28   ar
    31    28    29   ar
    32    29    30   ar
    33    25    30   ar
@<TRIPOS>MOLECULE
*****
 32 36 0 0 0
SMALL
GASTEIGER

@<TRIPOS>ATOM
      1 O           0.0000    0.0000    0.0000 O.2     1  UNL1       -0.3062
      2 C           0.0000    0.0000    0.0000 C.2     1  UNL1        0.1101
      3 N           0.0000    0.0000    0.0000 N.am    1  UNL1       -0.5749
      4 C           0.0000    0.0000    0.0000 C.2     1  UNL1        0.0710
      5 O           0.0000    0.0000    0.0000 O.2     1  UNL1       -0.3166
      6 C           0.0000    0.0000    0.0000 C.3     1  UNL1        0.0953
      7 S           0.0000    0.0000    0.0000 S.3     1  UNL1       -0.0919
      8 C           0.0000    0.0000    0.0000 C.3     1  UNL1        0.0438
      9 C           0.0000    0.0000    0.0000 C.ar    1  UNL1       -0.0147
     10 C           0.0000    0.0000    0.0000 C.ar    1  UNL1       -0.0006
     11 C           0.0000    0.0000    0.0000 C.ar    1  UNL1        0.0366
     12 C           0.0000    0.0000    0.0000 C.ar    1  UNL1        0.1389
     13 C           0.0000    0.0000    0.0000 C.ar    1  UNL1        0.0402
     14 C           0.0000    0.0000    0.0000 C.ar    1  UNL1        0.0285
     15 S           0.0000    0.0000    0.0000 S.2     1  UNL1       -0.0866
     16 C           0.0000    0.0000    0.0000 C.ar    1  UNL1        0.0355
     17 C           0.0000    0.0000    0.0000 C.ar    1  UNL1        0.0105
     18 O           0.0000    0.0000    0.0000 O.3     1  UNL1       -0.4750
     19 C           0.0000    0.0000    0.0000 C.3     1  UNL1        0.2118
     20 C           0.0000    0.0000    0.0000 C.3     1  UNL1        0.0960
     21 C           0.0000    0.0000    0.0000 C.ar    1  UNL1        0.0960
     22 N           0.0000    0.0000    0.0000 N.ar    1  UNL1       -0.2129
     23 C           0.0000    0.0000    0.0000 C.ar    1  UNL1        0.2289
     24 O           0.0000    0.0000    0.0000 O.2     1  UNL1       -0.4392
     25 C           0.0000    0.0000    0.0000 C.ar    1  UNL1        0.1387
     26 C           0.0000    0.0000    0.0000 C.3     1  UNL1        0.0738
     27 C           0.0000    0.0000    0.0000 C.ar    1  UNL1        0.0535
     28 C           0.0000    0.0000    0.0000 C.ar    1  UNL1        0.0046
     29 C           0.0000    0.0000    0.0000 C.ar    1  UNL1        0.0002
     30 C           0.0000    0.0000    0.0000 C.ar    1  UNL1        0.0000
     31 C           0.0000    0.0000    0.0000 C.ar    1  UNL1        0.0002
     32 C           0.0000    0.0000    0.0000 C.ar    1  UNL1        0.0046
@<TRIPOS>BOND
     1     1     2    2
     2     2     3    1
     3     3     4    1
     4     4     5    2
     5     4     6    1
     6     6     7    1
     7     2     7    1
     8     6     8    1
     9     8     9    1
    10     9    10   ar
    11    10    11   ar
    12    11    12   ar
    13    12    13   ar
    14    13    14   ar
    15     9    14   ar
    16    14    15   ar
    17    15    16   ar
    18    16    17   ar
    19    13    17   ar
    20    12    18    1
    21    18    19    1
    22    19    20    1
    23    20    21    1
    24    21    22   ar
    25    22    23   ar
    26    23    24   ar
    27    24    25   ar
    28    21    25   ar
    29    25    26    1
    30    23    27    1
    31    27    28   ar
    32    28    29   ar
    33    29    30   ar
    34    30    31   ar
    35    31    32   ar
    36    27    32   ar
@<TRIPOS>MOLECULE
*****
 26 27 0 0 0
SMALL
GASTEIGER

@<TRIPOS>ATOM
      1 O           0.0000    0.0000    0.0000 O.2     1  UNL1       -0.3308
      2 C           0.0000    0.0000    0.0000 C.2     1  UNL1        0.0267
      3 C           0.0000    0.0000    0.0000 C.2     1  UNL1       -0.1739
      4 C           0.0000    0.0000    0.0000 C.2     1  UNL1       -0.1143
      5 N           0.0000    0.0000    0.0000 N.2     1  UNL1       -0.3079
      6 C           0.0000    0.0000    0.0000 C.3     1  UNL1        0.1479
      7 C           0.0000    0.0000    0.0000 C.3     1  UNL1        0.1479
      8 N           0.0000    0.0000    0.0000 N.2     1  UNL1       -0.3079
      9 C           0.0000    0.0000    0.0000 C.2     1  UNL1       -0.1143
     10 C           0.0000    0.0000    0.0000 C.2     1  UNL1       -0.1739
     11 C           0.0000    0.0000    0.0000 C.2     1  UNL1        0.0267
     12 O           0.0000    0.0000    0.0000 O.2     1  UNL1       -0.3308
     13 C           0.0000    0.0000    0.0000 C.3     1  UNL1        0.1096
     14 O           0.0000    0.0000    0.0000 O.3     1  UNL1       -0.3904
     15 C           0.0000    0.0000    0.0000 C.3     1  UNL1       -0.0229
     16 C           0.0000    0.0000    0.0000 C.3     1  UNL1       -0.0061
     17 C           0.0000    0.0000    0.0000 C.3     1  UNL1       -0.0061
     18 C           0.0000    0.0000    0.0000 C.3     1  UNL1        0.0341
     19 C           0.0000    0.0000    0.0000 C.3     1  UNL1        0.0341
     20 C           0.0000    0.0000    0.0000 C.3     1  UNL1       -0.0229
     21 O           0.0000    0.0000    0.0000 O.3     1  UNL1       -0.3904
     22 C           0.0000    0.0000    0.0000 C.3     1  UNL1        0.1096
     23 C           0.0000    0.0000    0.0000 C.3     1  UNL1        0.0341
     24 C           0.0000    0.0000    0.0000 C.3     1  UNL1        0.0341
     25 C           0.0000    0.0000    0.0000 C.3     1  UNL1       -0.0061
     26 C           0.0000    0.0000    0.0000 C.3     1  UNL1       -0.0061
@<TRIPOS>BOND
     1     1     2    2
     2     2     3    1
     3     3     4    1
     4     4     5    2
     5     5     6    1
     6     6     7    1
     7     7     8    1
     8     8     9    2
     9     9    10    1
    10    10    11    1
    11    11    12    2
    12    11    13    1
    13    13    14    1
    14    14    15    1
    15    10    15    1
    16    15    16    1
    17    15    17    1
    18    13    18    1
    19    13    19    1
    20     3    20    1
    21    20    21    1
    22    21    22    1
    23     2    22    1
    24    22    23    1
    25    22    24    1
    26    20    25    1
    27    20    26    1
@<TRIPOS>MOLECULE
*****
 33 35 0 0 0
SMALL
GASTEIGER

@<TRIPOS>ATOM
      1 C           0.0000    0.0000    0.0000 C.3     1  UNL1        0.2525
      2 O           0.0000    0.0000    0.0000 O.3     1  UNL1       -0.4701
      3 C           0.0000    0.0000    0.0000 C.ar    1  UNL1        0.1539
      4 C           0.0000    0.0000    0.0000 C.ar    1  UNL1        0.0391
      5 C           0.0000    0.0000    0.0000 C.ar    1  UNL1        0.0146
      6 C           0.0000    0.0000    0.0000 C.ar    1  UNL1        0.0592
      7 C           0.0000    0.0000    0.0000 C.ar    1  UNL1        0.0311
      8 C           0.0000    0.0000    0.0000 C.ar    1  UNL1        0.1080
      9 N           0.0000    0.0000    0.0000 N.am    1  UNL1       -0.1758
     10 C           0.0000    0.0000    0.0000 C.2     1  UNL1        0.2501
     11 O           0.0000    0.0000    0.0000 O.2     1  UNL1       -0.2726
     12 C           0.0000    0.0000    0.0000 C.3     1  UNL1        0.1135
     13 C           0.0000    0.0000    0.0000 C.ar    1  UNL1       -0.0129
     14 C           0.0000    0.0000    0.0000 C.ar    1  UNL1       -0.0025
     15 C           0.0000    0.0000    0.0000 C.ar    1  UNL1        0.0166
     16 C           0.0000    0.0000    0.0000 C.ar    1  UNL1        0.0893
     17 C           0.0000    0.0000    0.0000 C.ar    1  UNL1        0.0166
     18 C           0.0000    0.0000    0.0000 C.ar    1  UNL1       -0.0025
     19 S           0.0000    0.0000    0.0000 S.O2    1  UNL1       -0.0559
     20 O           0.0000    0.0000    0.0000 O.2     1  UNL1       -0.1841
     21 O           0.0000    0.0000    0.0000 O.2     1  UNL1       -0.1841
     22 N           0.0000    0.0000    0.0000 N.pl3   1  UNL1       -0.5049
     23 C           0.0000    0.0000    0.0000 C.ar    1  UNL1        0.0590
     24 N           0.0000    0.0000    0.0000 N.ar    1  UNL1       -0.2488
     25 C           0.0000    0.0000    0.0000 C.ar    1  UNL1        0.0956
     26 C           0.0000    0.0000    0.0000 C.ar    1  UNL1        0.0160
     27 C           0.0000    0.0000    0.0000 C.ar    1  UNL1        0.0956
     28 N           0.0000    0.0000    0.0000 N.ar    1  UNL1       -0.2488
     29 C           0.0000    0.0000    0.0000 C.3     1  UNL1        0.0295
     30 C           0.0000    0.0000    0.0000 C.3     1  UNL1        0.0045
     31 C           0.0000    0.0000    0.0000 C.3     1  UNL1        0.0003
     32 C           0.0000    0.0000    0.0000 C.3     1  UNL1        0.0003
     33 CL          0.0000    0.0000    0.0000 Cl      1  UNL1       -0.0822
@<TRIPOS>BOND
     1     1     2    1
     2     2     3    1
     3     3     4   ar
     4     4     5   ar
     5     5     6   ar
     6     6     7   ar
     7     7     8   ar
     8     3     8   ar
     9     8     9    1
    10     9    10   am
    11    10    11    2
    12    10    12    1
    13    12    13    1
    14    13    14   ar
    15    14    15   ar
    16    15    16   ar
    17    16    17   ar
    18    17    18   ar
    19    13    18   ar
    20    16    19    1
    21    19    20    2
    22    19    21    2
    23    19    22    1
    24    22    23    1
    25    23    24   ar
    26    24    25   ar
    27    25    26   ar
    28    26    27   ar
    29    27    28   ar
    30    23    28   ar
    31    26    29    1
    32    29    30    1
    33    30    31    1
    34    30    32    1
    35     6    33    1
@<TRIPOS>MOLECULE
*****
 30 32 0 0 0
SMALL
GASTEIGER

@<TRIPOS>ATOM
      1 CL          0.0000    0.0000    0.0000 Cl      1  UNL1       -0.0822
      2 C           0.0000    0.0000    0.0000 C.ar    1  UNL1        0.0577
      3 C           0.0000    0.0000    0.0000 C.ar    1  UNL1        0.0095
      4 C           0.0000    0.0000    0.0000 C.ar    1  UNL1       -0.0229
      5 C           0.0000    0.0000    0.0000 C.ar    1  UNL1       -0.1091
      6 C           0.0000    0.0000    0.0000 C.ar    1  UNL1        0.0177
      7 C           0.0000    0.0000    0.0000 C.ar    1  UNL1        0.0128
      8 C           0.0000    0.0000    0.0000 C.2     1  UNL1        0.1942
      9 O           0.0000    0.0000    0.0000 O.2     1  UNL1       -0.2866
     10 C           0.0000    0.0000    0.0000 C.ar    1  UNL1        0.0512
     11 C           0.0000    0.0000    0.0000 C.ar    1  UNL1        0.0804
     12 C           0.0000    0.0000    0.0000 C.ar    1  UNL1        0.3019
     13 N           0.0000    0.0000    0.0000 N.ar    1  UNL1       -0.1519
     14 O           0.0000    0.0000    0.0000 O.co2   1  UNL1       -0.6187
     15 C           0.0000    0.0000    0.0000 C.ar    1  UNL1        0.3019
     16 C           0.0000    0.0000    0.0000 C.ar    1  UNL1        0.0804
     17 N           0.0000    0.0000    0.0000 N.pl3   1  UNL1       -0.5357
     18 S           0.0000    0.0000    0.0000 S.O2    1  UNL1       -0.0578
     19 O           0.0000    0.0000    0.0000 O.2     1  UNL1       -0.1842
     20 O           0.0000    0.0000    0.0000 O.2     1  UNL1       -0.1842
     21 C           0.0000    0.0000    0.0000 C.ar    1  UNL1        0.0893
     22 C           0.0000    0.0000    0.0000 C.ar    1  UNL1        0.0166
     23 C           0.0000    0.0000    0.0000 C.ar    1  UNL1       -0.0030
     24 C           0.0000    0.0000    0.0000 C.ar    1  UNL1       -0.0227
     25 C           0.0000    0.0000    0.0000 C.ar    1  UNL1       -0.0030
     26 C           0.0000    0.0000    0.0000 C.ar    1  UNL1        0.0166
     27 C           0.0000    0.0000    0.0000 C.3     1  UNL1        0.0189
     28 C           0.0000    0.0000    0.0000 C.3     1  UNL1        0.0044
     29 C           0.0000    0.0000    0.0000 C.3     1  UNL1        0.0044
     30 C           0.0000    0.0000    0.0000 C.3     1  UNL1        0.0044
@<TRIPOS>BOND
     1     1     2    1
     2     2     3   ar
     3     3     4   ar
     4     4     5   ar
     5     5     6   ar
     6     6     7   ar
     7     2     7   ar
     8     6     8    1
     9     8     9    2
    10     8    10    1
    11    10    11   ar
    12    11    12   ar
    13    12    13   ar
    14    13    14    1
    15    13    15   ar
    16    15    16   ar
    17    10    16   ar
    18     5    17    1
    19    17    18    1
    20    18    19    2
    21    18    20    2
    22    18    21    1
    23    21    22   ar
    24    22    23   ar
    25    23    24   ar
    26    24    25   ar
    27    25    26   ar
    28    21    26   ar
    29    24    27    1
    30    27    28    1
    31    27    29    1
    32    27    30    1
@<TRIPOS>MOLECULE
*****
 35 39 0 0 0
SMALL
GASTEIGER

@<TRIPOS>ATOM
      1 C           0.0000    0.0000    0.0000 C.3     1  UNL1        0.0515
      2 C           0.0000    0.0000    0.0000 C.2     1  UNL1        0.0879
      3 N           0.0000    0.0000    0.0000 N.2     1  UNL1       -0.1777
      4 N           0.0000    0.0000    0.0000 N.am    1  UNL1       -0.1571
      5 C           0.0000    0.0000    0.0000 C.2     1  UNL1        0.2780
      6 O           0.0000    0.0000    0.0000 O.2     1  UNL1       -0.2702
      7 C           0.0000    0.0000    0.0000 C.3     1  UNL1        0.2398
      8 N           0.0000    0.0000    0.0000 N.2     1  UNL1       -0.1611
      9 N           0.0000    0.0000    0.0000 N.2     1  UNL1       -0.1486
     10 C           0.0000    0.0000    0.0000 C.ar    1  UNL1        0.1412
     11 C           0.0000    0.0000    0.0000 C.ar    1  UNL1        0.0242
     12 C           0.0000    0.0000    0.0000 C.ar    1  UNL1        0.0018
     13 C           0.0000    0.0000    0.0000 C.ar    1  UNL1        0.0033
     14 C           0.0000    0.0000    0.0000 C.ar    1  UNL1        0.0405
     15 C           0.0000    0.0000    0.0000 C.ar    1  UNL1        0.2148
     16 O           0.0000    0.0000    0.0000 O.3     1  UNL1       -0.2849
     17 C           0.0000    0.0000    0.0000 C.ar    1  UNL1        0.0025
     18 C           0.0000    0.0000    0.0000 C.ar    1  UNL1        0.0001
     19 C           0.0000    0.0000    0.0000 C.ar    1  UNL1       -0.0006
     20 C           0.0000    0.0000    0.0000 C.ar    1  UNL1       -0.0066
     21 C           0.0000    0.0000    0.0000 C.ar    1  UNL1       -0.0151
     22 C           0.0000    0.0000    0.0000 C.ar    1  UNL1       -0.0065
     23 C           0.0000    0.0000    0.0000 C.ar    1  UNL1        0.0444
     24 N           0.0000    0.0000    0.0000 N.ar    1  UNL1       -0.2895
     25 N           0.0000    0.0000    0.0000 N.ar    1  UNL1       -0.2180
     26 N           0.0000    0.0000    0.0000 N.ar    1  UNL1       -0.2180
     27 N           0.0000    0.0000    0.0000 N.ar    1  UNL1       -0.2895
     28 C           0.0000    0.0000    0.0000 C.ar    1  UNL1        0.0765
     29 C           0.0000    0.0000    0.0000 C.ar    1  UNL1        0.0165
     30 C           0.0000    0.0000    0.0000 C.ar    1  UNL1       -0.0032
     31 C           0.0000    0.0000    0.0000 C.ar    1  UNL1       -0.0257
     32 C           0.0000    0.0000    0.0000 C.ar    1  UNL1       -0.0245
     33 C           0.0000    0.0000    0.0000 C.ar    1  UNL1        0.0123
     34 C           0.0000    0.0000    0.0000 C.3     1  UNL1        0.0307
     35 C           0.0000    0.0000    0.0000 C.3     1  UNL1        0.0307
@<TRIPOS>BOND
     1     1     2    1
     2     2     3    2
     3     3     4    1
     4     4     5   am
     5     5     6    2
     6     5     7    1
     7     2     7    1
     8     7     8    1
     9     8     9    2
    10     9    10    1
    11    10    11   ar
    12    11    12   ar
    13    12    13   ar
    14    13    14   ar
    15    14    15   ar
    16    10    15   ar
    17    15    16    1
    18    14    17    1
    19    17    18   ar
    20    18    19   ar
    21    19    20   ar
    22    20    21   ar
    23    21    22   ar
    24    17    22   ar
    25    21    23    1
    26    23    24   ar
    27    24    25   ar
    28    25    26   ar
    29    26    27   ar
    30    23    27   ar
    31     4    28    1
    32    28    29   ar
    33    29    30   ar
    34    30    31   ar
    35    31    32   ar
    36    32    33   ar
    37    28    33   ar
    38    32    34    1
    39    31    35    1
@<TRIPOS>MOLECULE
*****
 32 31 0 0 0
SMALL
GASTEIGER

@<TRIPOS>ATOM
      1 N           0.0000    0.0000    0.0000 N.1     1  UNK1        0.2221
      2 N           0.0000    0.0000    0.0000 N.1     1  UNK1        0.1791
      3 C           0.0000    0.0000    0.0000 C.2     1  UNK1        0.4666
      4 C           0.0000    0.0000    0.0000 C.2     1  UNK1       -0.0176
      5 C           0.0000    0.0000    0.0000 C.3     1  UNK1        0.0192
      6 C           0.0000    0.0000    0.0000 C.3     1  UNK1        0.0347
      7 C           0.0000    0.0000    0.0000 C.3     1  UNK1        0.1730
      8 C           0.0000    0.0000    0.0000 C.2     1  UNK1        0.2617
      9 O           0.0000    0.0000    0.0000 O.2     1  UNK1       -0.2715
     10 N           0.0000    0.0000    0.0000 N.am    2  UNK2       -0.1941
     11 C           0.0000    0.0000    0.0000 C.3     2  UNK2        0.1981
     12 C           0.0000    0.0000    0.0000 C.2     2  UNK2        0.3842
     13 O           0.0000    0.0000    0.0000 O.co2   2  UNK2       -0.2437
     14 O           0.0000    0.0000    0.0000 O.co2   2  UNK2       -0.2437
     15 C           0.0000    0.0000    0.0000 C.3     2  UNK2        0.0369
     16 C           0.0000    0.0000    0.0000 C.3     2  UNK2        0.0193
     17 C           0.0000    0.0000    0.0000 C.2     2  UNK2       -0.0176
     18 C           0.0000    0.0000    0.0000 C.2     2  UNK2        0.4666
     19 N           0.0000    0.0000    0.0000 N.1     2  UNK2        0.1791
     20 N           0.0000    0.0000    0.0000 N.1     2  UNK2        0.2221
     21 O           0.0000    0.0000    0.0000 O.co2   2  UNK2       -0.8710
     22 N           0.0000    0.0000    0.0000 N.am    1  UNK1       -0.1978
     23 C           0.0000    0.0000    0.0000 C.2     1  UNK1        0.2418
     24 O           0.0000    0.0000    0.0000 O.2     1  UNK1       -0.2733
     25 C           0.0000    0.0000    0.0000 C.3     1  UNK1        0.0889
     26 C           0.0000    0.0000    0.0000 C.3     1  UNK1        0.0402
     27 C           0.0000    0.0000    0.0000 C.3     1  UNK1        0.1948
     28 C           0.0000    0.0000    0.0000 C.2     1  UNK1        0.3819
     29 O           0.0000    0.0000    0.0000 O.co2   1  UNK1       -0.2441
     30 O           0.0000    0.0000    0.0000 O.co2   1  UNK1       -0.2441
     31 N           0.0000    0.0000    0.0000 N.3     1  UNK1       -0.1208
     32 O           0.0000    0.0000    0.0000 O.co2   1  UNK1       -0.8710
@<TRIPOS>BOND
     1     1     2    3
     2     2     3    1
     3     3     4    2
     4     4     5    1
     5     5     6    1
     6     6     7    1
     7     7     8    1
     8     8     9    2
     9     8    10   am
    10    10    11    1
    11    11    12    1
    12    12    13   ar
    13    12    14   ar
    14    11    15    1
    15    15    16    1
    16    16    17    1
    17    17    18    2
    18    18    19    1
    19    19    20    3
    20    17    21    1
    21     7    22    1
    22    22    23   am
    23    23    24    2
    24    23    25    1
    25    25    26    1
    26    26    27    1
    27    27    28    1
    28    28    29   ar
    29    28    30   ar
    30    27    31    1
    31     4    32    1
@<TRIPOS>MOLECULE
*****
 35 38 0 0 0
SMALL
GASTEIGER

@<TRIPOS>ATOM
      1 C           0.0000    0.0000    0.0000 C.3     1  UNL1        0.1355
      2 N           0.0000    0.0000    0.0000 N.pl3   1  UNL1       -0.2334
      3 C           0.0000    0.0000    0.0000 C.ar    1  UNL1        0.0942
      4 C           0.0000    0.0000    0.0000 C.ar    1  UNL1        0.0356
      5 C           0.0000    0.0000    0.0000 C.ar    1  UNL1        0.0661
      6 N           0.0000    0.0000    0.0000 N.ar    1  UNL1       -0.3061
      7 H           0.0000    0.0000    0.0000 H       1  UNL1        0.1704
      8 C           0.0000    0.0000    0.0000 C.ar    1  UNL1        0.3344
      9 O           0.0000    0.0000    0.0000 O.2     1  UNL1       -0.2461
     10 N           0.0000    0.0000    0.0000 N.ar    1  UNL1       -0.2274
     11 C           0.0000    0.0000    0.0000 C.ar    1  UNL1        0.2695
     12 O           0.0000    0.0000    0.0000 O.2     1  UNL1       -0.2665
     13 C           0.0000    0.0000    0.0000 C.ar    1  UNL1        0.0746
     14 C           0.0000    0.0000    0.0000 C.ar    1  UNL1        0.0372
     15 C           0.0000    0.0000    0.0000 C.ar    1  UNL1        0.1551
     16 F           0.0000    0.0000    0.0000 F       1  UNL1       -0.2028
     17 C           0.0000    0.0000    0.0000 C.ar    1  UNL1        0.0712
     18 C           0.0000    0.0000    0.0000 C.ar    1  UNL1        0.0191
     19 C           0.0000    0.0000    0.0000 C.ar    1  UNL1        0.0180
     20 C           0.0000    0.0000    0.0000 C.ar    1  UNL1        0.0720
     21 C           0.0000    0.0000    0.0000 C.ar    1  UNL1        0.0180
     22 C           0.0000    0.0000    0.0000 C.ar    1  UNL1        0.0191
     23 N           0.0000    0.0000    0.0000 N.am    1  UNL1       -0.1952
     24 C           0.0000    0.0000    0.0000 C.2     1  UNL1        0.1671
     25 O           0.0000    0.0000    0.0000 O.2     1  UNL1       -0.2941
     26 N           0.0000    0.0000    0.0000 N.am    1  UNL1       -0.4878
     27 S           0.0000    0.0000    0.0000 S.O2    1  UNL1       -0.0492
     28 O           0.0000    0.0000    0.0000 O.2     1  UNL1       -0.1836
     29 O           0.0000    0.0000    0.0000 O.2     1  UNL1       -0.1836
     30 C           0.0000    0.0000    0.0000 C.ar    1  UNL1        0.1195
     31 C           0.0000    0.0000    0.0000 C.ar    1  UNL1        0.0250
     32 C           0.0000    0.0000    0.0000 C.ar    1  UNL1        0.0198
     33 C           0.0000    0.0000    0.0000 C.ar    1  UNL1        0.0881
     34 S           0.0000    0.0000    0.0000 S.2     1  UNL1       -0.0586
     35 CL          0.0000    0.0000    0.0000 Cl      1  UNL1       -0.0751
@<TRIPOS>BOND
     1     1     2    1
     2     2     3    1
     3     3     4   ar
     4     4     5   ar
     5     5     6   ar
     6     6     7    1
     7     6     8   ar
     8     8     9    2
     9     8    10   ar
    10    10    11   ar
    11    11    12    2
    12    11    13   ar
    13     5    13   ar
    14    13    14   ar
    15    14    15   ar
    16     3    15   ar
    17    15    16    1
    18    10    17    1
    19    17    18   ar
    20    18    19   ar
    21    19    20   ar
    22    20    21   ar
    23    21    22   ar
    24    17    22   ar
    25    20    23    1
    26    23    24   am
    27    24    25    2
    28    24    26    1
    29    26    27    1
    30    27    28    2
    31    27    29    2
    32    27    30    1
    33    30    31   ar
    34    31    32   ar
    35    32    33   ar
    36    33    34   ar
    37    30    34   ar
    38    33    35    1
@<TRIPOS>MOLECULE
*****
 35 36 0 0 0
SMALL
GASTEIGER

@<TRIPOS>ATOM
      1 N           0.0000    0.0000    0.0000 N.2     1  UNL1       -0.3281
      2 N           0.0000    0.0000    0.0000 N.2     1  UNL1       -0.0115
      3 N           0.0000    0.0000    0.0000 N.2     1  UNL1        0.1210
      4 C           0.0000    0.0000    0.0000 C.3     1  UNL1        0.3370
      5 C           0.0000    0.0000    0.0000 C.3     1  UNL1        0.2700
      6 O           0.0000    0.0000    0.0000 O.3     1  UNL1       -0.4433
      7 C           0.0000    0.0000    0.0000 C.2     1  UNL1        0.3166
      8 O           0.0000    0.0000    0.0000 O.2     1  UNL1       -0.2501
      9 C           0.0000    0.0000    0.0000 C.3     1  UNL1        0.0991
     10 C           0.0000    0.0000    0.0000 C.3     1  UNL1        0.0116
     11 C           0.0000    0.0000    0.0000 C.3     1  UNL1        0.0116
     12 O           0.0000    0.0000    0.0000 O.3     1  UNL1       -0.3047
     13 C           0.0000    0.0000    0.0000 C.3     1  UNL1        0.2550
     14 C           0.0000    0.0000    0.0000 C.3     1  UNL1        0.2624
     15 C           0.0000    0.0000    0.0000 C.3     1  UNL1        0.2697
     16 O           0.0000    0.0000    0.0000 O.3     1  UNL1       -0.4433
     17 C           0.0000    0.0000    0.0000 C.2     1  UNL1        0.3166
     18 O           0.0000    0.0000    0.0000 O.2     1  UNL1       -0.2501
     19 C           0.0000    0.0000    0.0000 C.3     1  UNL1        0.0991
     20 C           0.0000    0.0000    0.0000 C.3     1  UNL1        0.0116
     21 C           0.0000    0.0000    0.0000 C.3     1  UNL1        0.0116
     22 O           0.0000    0.0000    0.0000 O.3     1  UNL1       -0.4436
     23 C           0.0000    0.0000    0.0000 C.2     1  UNL1        0.3166
     24 O           0.0000    0.0000    0.0000 O.2     1  UNL1       -0.2501
     25 C           0.0000    0.0000    0.0000 C.3     1  UNL1        0.0991
     26 C           0.0000    0.0000    0.0000 C.3     1  UNL1        0.0116
     27 C           0.0000    0.0000    0.0000 C.3     1  UNL1        0.0116
     28 N           0.0000    0.0000    0.0000 N.ar    1  UNL1       -0.2526
     29 C           0.0000    0.0000    0.0000 C.ar    1  UNL1        0.0851
     30 C           0.0000    0.0000    0.0000 C.ar    1  UNL1        0.0566
     31 C           0.0000    0.0000    0.0000 C.ar    1  UNL1        0.1759
     32 N           0.0000    0.0000    0.0000 N.ar    1  UNL1       -0.1739
     33 C           0.0000    0.0000    0.0000 C.ar    1  UNL1        0.3532
     34 O           0.0000    0.0000    0.0000 O.2     1  UNL1       -0.2443
     35 N           0.0000    0.0000    0.0000 N.pl3   1  UNL1       -0.1070
@<TRIPOS>BOND
     1     1     2    2
     2     2     3    2
     3     3     4    1
     4     4     5    1
     5     5     6    1
     6     6     7    1
     7     7     8    2
     8     7     9    1
     9     9    10    1
    10     9    11    1
    11     4    12    1
    12    12    13    1
    13    13    14    1
    14    14    15    1
    15     4    15    1
    16    15    16    1
    17    16    17    1
    18    17    18    2
    19    17    19    1
    20    19    20    1
    21    19    21    1
    22    14    22    1
    23    22    23    1
    24    23    24    2
    25    23    25    1
    26    25    26    1
    27    25    27    1
    28    13    28    1
    29    28    29   ar
    30    29    30   ar
    31    30    31   ar
    32    31    32   ar
    33    32    33   ar
    34    28    33   ar
    35    33    34    2
    36    31    35    1
@<TRIPOS>MOLECULE
*****
 36 39 0 0 0
SMALL
GASTEIGER

@<TRIPOS>ATOM
      1 C           0.0000    0.0000    0.0000 C.3     1  UNL1        0.2525
      2 O           0.0000    0.0000    0.0000 O.3     1  UNL1       -0.4717
      3 C           0.0000    0.0000    0.0000 C.ar    1  UNL1        0.1347
      4 C           0.0000    0.0000    0.0000 C.ar    1  UNL1        0.0351
      5 C           0.0000    0.0000    0.0000 C.ar    1  UNL1        0.0207
      6 C           0.0000    0.0000    0.0000 C.ar    1  UNL1        0.0681
      7 C           0.0000    0.0000    0.0000 C.ar    1  UNL1        0.0164
      8 C           0.0000    0.0000    0.0000 C.ar    1  UNL1        0.0126
      9 C           0.0000    0.0000    0.0000 C.3     1  UNL1        0.0219
     10 C           0.0000    0.0000    0.0000 C.3     1  UNL1        0.0045
     11 C           0.0000    0.0000    0.0000 C.3     1  UNL1        0.0045
     12 C           0.0000    0.0000    0.0000 C.3     1  UNL1        0.0045
     13 N           0.0000    0.0000    0.0000 N.ar    1  UNL1       -0.2589
     14 C           0.0000    0.0000    0.0000 C.ar    1  UNL1        0.0893
     15 C           0.0000    0.0000    0.0000 C.ar    1  UNL1        0.0797
     16 C           0.0000    0.0000    0.0000 C.ar    1  UNL1        0.2626
     17 O           0.0000    0.0000    0.0000 O.2     1  UNL1       -0.2670
     18 N           0.0000    0.0000    0.0000 N.ar    1  UNL1       -0.2741
     19 H           0.0000    0.0000    0.0000 H       1  UNL1        0.1735
     20 C           0.0000    0.0000    0.0000 C.ar    1  UNL1        0.3344
     21 O           0.0000    0.0000    0.0000 O.2     1  UNL1       -0.2461
     22 C           0.0000    0.0000    0.0000 C.ar    1  UNL1        0.0030
     23 C           0.0000    0.0000    0.0000 C.ar    1  UNL1        0.0001
     24 C           0.0000    0.0000    0.0000 C.ar    1  UNL1       -0.0001
     25 C           0.0000    0.0000    0.0000 C.ar    1  UNL1       -0.0018
     26 C           0.0000    0.0000    0.0000 C.ar    1  UNL1       -0.0001
     27 C           0.0000    0.0000    0.0000 C.ar    1  UNL1        0.0001
     28 C           0.0000    0.0000    0.0000 C.ar    1  UNL1       -0.0019
     29 C           0.0000    0.0000    0.0000 C.ar    1  UNL1       -0.0238
     30 C           0.0000    0.0000    0.0000 C.ar    1  UNL1       -0.1126
     31 C           0.0000    0.0000    0.0000 C.ar    1  UNL1       -0.0238
     32 N           0.0000    0.0000    0.0000 N.pl3   1  UNL1       -0.5398
     33 S           0.0000    0.0000    0.0000 S.O2    1  UNL1       -0.0755
     34 O           0.0000    0.0000    0.0000 O.2     1  UNL1       -0.1884
     35 O           0.0000    0.0000    0.0000 O.2     1  UNL1       -0.1884
     36 C           0.0000    0.0000    0.0000 C.3     1  UNL1        0.1563
@<TRIPOS>BOND
     1     1     2    1
     2     2     3    1
     3     3     4   ar
     4     4     5   ar
     5     5     6   ar
     6     6     7   ar
     7     7     8   ar
     8     3     8   ar
     9     8     9    1
    10     9    10    1
    11     9    11    1
    12     9    12    1
    13     6    13    1
    14    13    14   ar
    15    14    15   ar
    16    15    16   ar
    17    16    17    2
    18    16    18   ar
    19    18    19    1
    20    18    20   ar
    21    13    20   ar
    22    20    21    2
    23     4    22    1
    24    22    23   ar
    25    23    24   ar
    26    24    25   ar
    27    25    26   ar
    28    26    27   ar
    29    22    27   ar
    30    26    28   ar
    31    28    29   ar
    32    29    30   ar
    33    30    31   ar
    34    25    31   ar
    35    30    32    1
    36    32    33    1
    37    33    34    2
    38    33    35    2
    39    33    36    1
@<TRIPOS>MOLECULE
*****
 42 47 0 0 0
SMALL
GASTEIGER

@<TRIPOS>ATOM
      1 C           0.0000    0.0000    0.0000 C.3     1  UNL1        0.0513
      2 C           0.0000    0.0000    0.0000 C.3     1  UNL1        0.2088
      3 O           0.0000    0.0000    0.0000 O.3     1  UNL1       -0.4478
      4 C           0.0000    0.0000    0.0000 C.ar    1  UNL1        0.3009
      5 N           0.0000    0.0000    0.0000 N.ar    1  UNL1       -0.1942
      6 C           0.0000    0.0000    0.0000 C.ar    1  UNL1        0.1019
      7 C           0.0000    0.0000    0.0000 C.ar    1  UNL1        0.0880
      8 N           0.0000    0.0000    0.0000 N.ar    1  UNL1       -0.2774
      9 C           0.0000    0.0000    0.0000 C.3     1  UNL1        0.1372
     10 C           0.0000    0.0000    0.0000 C.ar    1  UNL1        0.0005
     11 C           0.0000    0.0000    0.0000 C.ar    1  UNL1       -0.0024
     12 C           0.0000    0.0000    0.0000 C.ar    1  UNL1       -0.0003
     13 C           0.0000    0.0000    0.0000 C.ar    1  UNL1       -0.0000
     14 C           0.0000    0.0000    0.0000 C.ar    1  UNL1       -0.0003
     15 C           0.0000    0.0000    0.0000 C.ar    1  UNL1       -0.0024
     16 C           0.0000    0.0000    0.0000 C.ar    1  UNL1       -0.0002
     17 C           0.0000    0.0000    0.0000 C.ar    1  UNL1       -0.0000
     18 C           0.0000    0.0000    0.0000 C.ar    1  UNL1       -0.0000
     19 C           0.0000    0.0000    0.0000 C.ar    1  UNL1       -0.0000
     20 C           0.0000    0.0000    0.0000 C.ar    1  UNL1       -0.0002
     21 C           0.0000    0.0000    0.0000 C.ar    1  UNL1       -0.0016
     22 C           0.0000    0.0000    0.0000 C.ar    1  UNL1        0.0108
     23 N           0.0000    0.0000    0.0000 N.ar    1  UNL1       -0.0995
     24 O           0.0000    0.0000    0.0000 O.2     1  UNL1       -0.3369
     25 C           0.0000    0.0000    0.0000 C.ar    1  UNL1        0.2695
     26 O           0.0000    0.0000    0.0000 O.2     1  UNL1       -0.2686
     27 N           0.0000    0.0000    0.0000 N.ar    1  UNL1       -0.5731
     28 C           0.0000    0.0000    0.0000 C.ar    1  UNL1        0.0930
     29 C           0.0000    0.0000    0.0000 C.ar    1  UNL1        0.0080
     30 C           0.0000    0.0000    0.0000 C.ar    1  UNL1        0.0019
     31 C           0.0000    0.0000    0.0000 C.ar    1  UNL1        0.0207
     32 C           0.0000    0.0000    0.0000 C.2     1  UNL1        0.3431
     33 O           0.0000    0.0000    0.0000 O.2     1  UNL1       -0.2448
     34 O           0.0000    0.0000    0.0000 O.3     1  UNL1       -0.4369
     35 C           0.0000    0.0000    0.0000 C.3     1  UNL1        0.2754
     36 C           0.0000    0.0000    0.0000 C.ar    1  UNL1        0.2036
     37 O           0.0000    0.0000    0.0000 O.2     1  UNL1       -0.3911
     38 C           0.0000    0.0000    0.0000 C.ar    1  UNL1        0.5208
     39 O           0.0000    0.0000    0.0000 O.2     1  UNL1       -0.2021
     40 O           0.0000    0.0000    0.0000 O.2     1  UNL1       -0.3948
     41 C           0.0000    0.0000    0.0000 C.ar    1  UNL1        0.1637
     42 C           0.0000    0.0000    0.0000 C.3     1  UNL1        0.0758
@<TRIPOS>BOND
     1     1     2    1
     2     2     3    1
     3     3     4    1
     4     4     5   ar
     5     5     6   ar
     6     6     7   ar
     7     7     8   ar
     8     4     8   ar
     9     8     9    1
    10     9    10    1
    11    10    11   ar
    12    11    12   ar
    13    12    13   ar
    14    13    14   ar
    15    14    15   ar
    16    10    15   ar
    17    13    16    1
    18    16    17   ar
    19    17    18   ar
    20    18    19   ar
    21    19    20   ar
    22    20    21   ar
    23    16    21   ar
    24    21    22    1
    25    22    23   ar
    26    23    24   ar
    27    24    25   ar
    28    25    26    2
    29    25    27   ar
    30    22    27   ar
    31     7    28   ar
    32    28    29   ar
    33    29    30   ar
    34    30    31   ar
    35     6    31   ar
    36    28    32    1
    37    32    33    2
    38    32    34    1
    39    34    35    1
    40    35    36    1
    41    36    37   ar
    42    37    38   ar
    43    38    39    2
    44    38    40   ar
    45    40    41   ar
    46    36    41   ar
    47    41    42    1
@<TRIPOS>MOLECULE
*****
 40 44 0 0 0
SMALL
GASTEIGER

@<TRIPOS>ATOM
      1 O           0.0000    0.0000    0.0000 O.2     1  UNL1       -0.2508
      2 C           0.0000    0.0000    0.0000 C.2     1  UNL1        0.3236
      3 N           0.0000    0.0000    0.0000 N.am    1  UNL1       -0.2627
      4 C           0.0000    0.0000    0.0000 C.3     1  UNL1        0.0967
      5 C           0.0000    0.0000    0.0000 C.3     1  UNL1        0.0414
      6 C           0.0000    0.0000    0.0000 C.3     1  UNL1        0.0772
      7 C           0.0000    0.0000    0.0000 C.3     1  UNL1        0.0414
      8 C           0.0000    0.0000    0.0000 C.3     1  UNL1        0.0967
      9 N           0.0000    0.0000    0.0000 N.am    1  UNL1       -0.2983
     10 C           0.0000    0.0000    0.0000 C.2     1  UNL1        0.1323
     11 O           0.0000    0.0000    0.0000 O.2     1  UNL1       -0.2971
     12 N           0.0000    0.0000    0.0000 N.am    1  UNL1       -0.6057
     13 C           0.0000    0.0000    0.0000 C.3     1  UNL1       -0.0068
     14 C           0.0000    0.0000    0.0000 C.3     1  UNL1        0.0698
     15 C           0.0000    0.0000    0.0000 C.3     1  UNL1        0.0209
     16 C           0.0000    0.0000    0.0000 C.3     1  UNL1        0.0204
     17 C           0.0000    0.0000    0.0000 C.3     1  UNL1        0.0869
     18 N           0.0000    0.0000    0.0000 N.3     1  UNL1       -0.2392
     19 N           0.0000    0.0000    0.0000 N.am    1  UNL1       -0.1809
     20 C           0.0000    0.0000    0.0000 C.3     1  UNL1        0.1728
     21 C           0.0000    0.0000    0.0000 C.3     1  UNL1        0.0315
     22 C           0.0000    0.0000    0.0000 C.3     1  UNL1        0.0084
     23 C           0.0000    0.0000    0.0000 C.3     1  UNL1        0.0445
     24 C           0.0000    0.0000    0.0000 C.3     1  UNL1        0.0981
     25 N           0.0000    0.0000    0.0000 N.am    1  UNL1       -0.2701
     26 C           0.0000    0.0000    0.0000 C.2     1  UNL1        0.2458
     27 O           0.0000    0.0000    0.0000 O.2     1  UNL1       -0.2730
     28 C           0.0000    0.0000    0.0000 C.3     1  UNL1        0.1974
     29 C           0.0000    0.0000    0.0000 C.3     1  UNL1        0.4157
     30 F           0.0000    0.0000    0.0000 F       1  UNL1       -0.1682
     31 F           0.0000    0.0000    0.0000 F       1  UNL1       -0.1682
     32 F           0.0000    0.0000    0.0000 F       1  UNL1       -0.1682
     33 C           0.0000    0.0000    0.0000 C.ar    1  UNL1        0.0089
     34 C           0.0000    0.0000    0.0000 C.ar    1  UNL1       -0.0019
     35 C           0.0000    0.0000    0.0000 C.ar    1  UNL1        0.0021
     36 C           0.0000    0.0000    0.0000 C.ar    1  UNL1        0.0319
     37 C           0.0000    0.0000    0.0000 C.ar    1  UNL1        0.1671
     38 C           0.0000    0.0000    0.0000 C.ar    1  UNL1        0.1634
     39 F           0.0000    0.0000    0.0000 F       1  UNL1       -0.2021
     40 F           0.0000    0.0000    0.0000 F       1  UNL1       -0.2018
@<TRIPOS>BOND
     1     1     2    2
     2     2     3   am
     3     3     4    1
     4     4     5    1
     5     5     6    1
     6     6     7    1
     7     7     8    1
     8     3     8    1
     9     6     9    1
    10     9    10   am
    11    10    11    2
    12    10    12    1
    13    12    13    1
    14    13    14    1
    15     9    14    1
    16    14    15    1
    17    15    16    1
    18    16    17    1
    19    17    18    1
    20    13    18    1
    21     2    19   am
    22    19    20    1
    23    20    21    1
    24    21    22    1
    25    22    23    1
    26    23    24    1
    27    24    25    1
    28    25    26   am
    29    20    26    1
    30    26    27    2
    31    25    28    1
    32    28    29    1
    33    29    30    1
    34    29    31    1
    35    29    32    1
    36    23    33    1
    37    33    34   ar
    38    34    35   ar
    39    35    36   ar
    40    36    37   ar
    41    37    38   ar
    42    33    38   ar
    43    38    39    1
    44    37    40    1
@<TRIPOS>MOLECULE
*****
 38 42 0 0 0
SMALL
GASTEIGER

@<TRIPOS>ATOM
      1 C           0.0000    0.0000    0.0000 C.3     1  UNL1        0.0084
      2 C           0.0000    0.0000    0.0000 C.3     1  UNL1        0.0640
      3 C           0.0000    0.0000    0.0000 C.ar    1  UNL1        0.1203
      4 N           0.0000    0.0000    0.0000 N.ar    1  UNL1       -0.2351
      5 C           0.0000    0.0000    0.0000 C.ar    1  UNL1        0.0802
      6 C           0.0000    0.0000    0.0000 C.ar    1  UNL1        0.1320
      7 N           0.0000    0.0000    0.0000 N.ar    1  UNL1       -0.3073
      8 C           0.0000    0.0000    0.0000 C.3     1  UNL1        0.1340
      9 C           0.0000    0.0000    0.0000 C.ar    1  UNL1        0.0006
     10 C           0.0000    0.0000    0.0000 C.ar    1  UNL1        0.0007
     11 C           0.0000    0.0000    0.0000 C.ar    1  UNL1        0.0372
     12 C           0.0000    0.0000    0.0000 C.ar    1  UNL1        0.1458
     13 C           0.0000    0.0000    0.0000 C.ar    1  UNL1        0.0435
     14 C           0.0000    0.0000    0.0000 C.ar    1  UNL1        0.0012
     15 C           0.0000    0.0000    0.0000 C.ar    1  UNL1        0.0719
     16 BR          0.0000    0.0000    0.0000 Br      1  UNL1       -0.0457
     17 C           0.0000    0.0000    0.0000 C.ar    1  UNL1        0.1513
     18 O           0.0000    0.0000    0.0000 O.2     1  UNL1       -0.4530
     19 C           0.0000    0.0000    0.0000 C.ar    1  UNL1        0.0333
     20 C           0.0000    0.0000    0.0000 C.ar    1  UNL1        0.0029
     21 C           0.0000    0.0000    0.0000 C.ar    1  UNL1       -0.0018
     22 C           0.0000    0.0000    0.0000 C.ar    1  UNL1       -0.0238
     23 C           0.0000    0.0000    0.0000 C.ar    1  UNL1       -0.1123
     24 C           0.0000    0.0000    0.0000 C.ar    1  UNL1       -0.0208
     25 N           0.0000    0.0000    0.0000 N.pl3   1  UNL1       -0.5332
     26 S           0.0000    0.0000    0.0000 S.O2    1  UNL1        0.0046
     27 O           0.0000    0.0000    0.0000 O.2     1  UNL1       -0.1815
     28 O           0.0000    0.0000    0.0000 O.2     1  UNL1       -0.1815
     29 C           0.0000    0.0000    0.0000 C.3     1  UNL1        0.5089
     30 F           0.0000    0.0000    0.0000 F       1  UNL1       -0.1512
     31 F           0.0000    0.0000    0.0000 F       1  UNL1       -0.1512
     32 F           0.0000    0.0000    0.0000 F       1  UNL1       -0.1512
     33 C           0.0000    0.0000    0.0000 C.2     1  UNL1        0.3013
     34 O           0.0000    0.0000    0.0000 O.2     1  UNL1       -0.2650
     35 N           0.0000    0.0000    0.0000 N.am    1  UNL1       -0.0824
     36 C           0.0000    0.0000    0.0000 C.3     1  UNL1        0.0419
     37 C           0.0000    0.0000    0.0000 C.3     1  UNL1        0.0064
     38 C           0.0000    0.0000    0.0000 C.3     1  UNL1        0.0064
@<TRIPOS>BOND
     1     1     2    1
     2     2     3    1
     3     3     4   ar
     4     4     5   ar
     5     5     6   ar
     6     6     7   ar
     7     3     7   ar
     8     7     8    1
     9     8     9    1
    10     9    10   ar
    11    10    11   ar
    12    11    12   ar
    13    12    13   ar
    14    13    14   ar
    15     9    14   ar
    16    13    15   ar
    17    15    16    1
    18    15    17   ar
    19    17    18   ar
    20    12    18   ar
    21    17    19    1
    22    19    20   ar
    23    20    21   ar
    24    21    22   ar
    25    22    23   ar
    26    23    24   ar
    27    19    24   ar
    28    23    25    1
    29    25    26    1
    30    26    27    2
    31    26    28    2
    32    26    29    1
    33    29    30    1
    34    29    31    1
    35    29    32    1
    36     6    33    1
    37    33    34    2
    38    33    35   am
    39     5    36    1
    40    36    37    1
    41    37    38    1
    42    36    38    1
@<TRIPOS>MOLECULE
*****
 42 46 0 0 0
SMALL
GASTEIGER

@<TRIPOS>ATOM
      1 O           0.0000    0.0000    0.0000 O.3     1  UNL1       -0.2861
      2 C           0.0000    0.0000    0.0000 C.ar    1  UNL1        0.2077
      3 C           0.0000    0.0000    0.0000 C.ar    1  UNL1        0.0846
      4 C           0.0000    0.0000    0.0000 C.ar    1  UNL1        0.2074
      5 O           0.0000    0.0000    0.0000 O.3     1  UNL1       -0.2862
      6 C           0.0000    0.0000    0.0000 C.ar    1  UNL1        0.1385
      7 C           0.0000    0.0000    0.0000 C.ar    1  UNL1        0.3799
      8 C           0.0000    0.0000    0.0000 C.ar    1  UNL1        0.1467
      9 O           0.0000    0.0000    0.0000 O.2     1  UNL1       -0.1989
     10 C           0.0000    0.0000    0.0000 C.ar    1  UNL1        0.4065
     11 C           0.0000    0.0000    0.0000 C.ar    1  UNL1        0.2372
     12 C           0.0000    0.0000    0.0000 C.ar    1  UNL1        0.0580
     13 O           0.0000    0.0000    0.0000 O.3     1  UNL1       -0.4416
     14 C           0.0000    0.0000    0.0000 C.3     1  UNL1        0.3221
     15 O           0.0000    0.0000    0.0000 O.3     1  UNL1       -0.3158
     16 C           0.0000    0.0000    0.0000 C.3     1  UNL1        0.1813
     17 C           0.0000    0.0000    0.0000 C.3     1  UNL1        0.1771
     18 O           0.0000    0.0000    0.0000 O.3     1  UNL1       -0.3259
     19 C           0.0000    0.0000    0.0000 C.3     1  UNL1        0.2695
     20 O           0.0000    0.0000    0.0000 O.3     1  UNL1       -0.3284
     21 C           0.0000    0.0000    0.0000 C.3     1  UNL1        0.1508
     22 C           0.0000    0.0000    0.0000 C.3     1  UNL1        0.0350
     23 C           0.0000    0.0000    0.0000 C.3     1  UNL1        0.2118
     24 C           0.0000    0.0000    0.0000 C.3     1  UNL1        0.2197
     25 C           0.0000    0.0000    0.0000 C.3     1  UNL1        0.2406
     26 O           0.0000    0.0000    0.0000 O.3     1  UNL1       -0.2149
     27 O           0.0000    0.0000    0.0000 O.3     1  UNL1       -0.2174
     28 O           0.0000    0.0000    0.0000 O.3     1  UNL1       -0.2177
     29 C           0.0000    0.0000    0.0000 C.3     1  UNL1        0.2144
     30 C           0.0000    0.0000    0.0000 C.3     1  UNL1        0.2211
     31 C           0.0000    0.0000    0.0000 C.3     1  UNL1        0.2542
     32 O           0.0000    0.0000    0.0000 O.3     1  UNL1       -0.2135
     33 O           0.0000    0.0000    0.0000 O.3     1  UNL1       -0.2173
     34 O           0.0000    0.0000    0.0000 O.3     1  UNL1       -0.2176
     35 C           0.0000    0.0000    0.0000 C.ar    1  UNL1        0.1028
     36 C           0.0000    0.0000    0.0000 C.ar    1  UNL1        0.0123
     37 C           0.0000    0.0000    0.0000 C.ar    1  UNL1        0.0457
     38 C           0.0000    0.0000    0.0000 C.ar    1  UNL1        0.2343
     39 C           0.0000    0.0000    0.0000 C.ar    1  UNL1        0.2345
     40 C           0.0000    0.0000    0.0000 C.ar    1  UNL1        0.0542
     41 O           0.0000    0.0000    0.0000 O.3     1  UNL1       -0.2831
     42 O           0.0000    0.0000    0.0000 O.3     1  UNL1       -0.2831
@<TRIPOS>BOND
     1     1     2    1
     2     2     3   ar
     3     3     4   ar
     4     4     5    1
     5     4     6   ar
     6     6     7   ar
     7     7     8   ar
     8     2     8   ar
     9     7     9   ar
    10     9    10   ar
    11    10    11   ar
    12    11    12   ar
    13     6    12   ar
    14    11    13    1
    15    13    14    1
    16    14    15    1
    17    15    16    1
    18    16    17    1
    19    17    18    1
    20    18    19    1
    21    19    20    1
    22    20    21    1
    23    21    22    1
    24    21    23    1
    25    23    24    1
    26    24    25    1
    27    19    25    1
    28    25    26    1
    29    24    27    1
    30    23    28    1
    31    16    29    1
    32    29    30    1
    33    30    31    1
    34    14    31    1
    35    31    32    1
    36    30    33    1
    37    29    34    1
    38    10    35    1
    39    35    36   ar
    40    36    37   ar
    41    37    38   ar
    42    38    39   ar
    43    39    40   ar
    44    35    40   ar
    45    39    41    1
    46    38    42    1
@<TRIPOS>MOLECULE
*****
 37 39 0 0 0
SMALL
GASTEIGER

@<TRIPOS>ATOM
      1 C           0.0000    0.0000    0.0000 C.3     1  UNL1        0.0919
      2 C           0.0000    0.0000    0.0000 C.3     1  UNL1        0.3170
      3 N           0.0000    0.0000    0.0000 N.2     1  UNL1       -0.1895
      4 C           0.0000    0.0000    0.0000 C.2     1  UNL1        0.2214
      5 C           0.0000    0.0000    0.0000 C.2     1  UNL1        0.0688
      6 C           0.0000    0.0000    0.0000 C.2     1  UNL1        0.0061
      7 C           0.0000    0.0000    0.0000 C.2     1  UNL1        0.0004
      8 C           0.0000    0.0000    0.0000 C.2     1  UNL1        0.0013
      9 C           0.0000    0.0000    0.0000 C.ar    1  UNL1        0.0174
     10 C           0.0000    0.0000    0.0000 C.ar    1  UNL1        0.0186
     11 C           0.0000    0.0000    0.0000 C.ar    1  UNL1        0.0934
     12 C           0.0000    0.0000    0.0000 C.ar    1  UNL1        0.0186
     13 C           0.0000    0.0000    0.0000 C.ar    1  UNL1        0.0186
     14 C           0.0000    0.0000    0.0000 C.ar    1  UNL1        0.0934
     15 S           0.0000    0.0000    0.0000 S.3     1  UNL1       -0.0500
     16 O           0.0000    0.0000    0.0000 O.2     1  UNL1       -0.1802
     17 O           0.0000    0.0000    0.0000 O.2     1  UNL1       -0.1802
     18 O           0.0000    0.0000    0.0000 O.co2   1  UNL1       -0.7201
     19 S           0.0000    0.0000    0.0000 S.3     1  UNL1       -0.0500
     20 O           0.0000    0.0000    0.0000 O.2     1  UNL1       -0.1802
     21 O           0.0000    0.0000    0.0000 O.2     1  UNL1       -0.1802
     22 O           0.0000    0.0000    0.0000 O.co2   1  UNL1       -0.7201
     23 C           0.0000    0.0000    0.0000 C.ar    1  UNL1        0.0001
     24 C           0.0000    0.0000    0.0000 C.ar    1  UNL1        0.0013
     25 C           0.0000    0.0000    0.0000 C.ar    1  UNL1        0.0145
     26 C           0.0000    0.0000    0.0000 C.ar    1  UNL1        0.0478
     27 C           0.0000    0.0000    0.0000 C.ar    1  UNL1        0.0145
     28 C           0.0000    0.0000    0.0000 C.ar    1  UNL1        0.0013
     29 N           0.0000    0.0000    0.0000 N.pl3   1  UNL1       -0.3075
     30 C           0.0000    0.0000    0.0000 C.3     1  UNL1        0.0908
     31 C           0.0000    0.0000    0.0000 C.3     1  UNL1        0.0232
     32 C           0.0000    0.0000    0.0000 C.3     1  UNL1        0.0908
     33 C           0.0000    0.0000    0.0000 C.3     1  UNL1        0.0232
     34 C           0.0000    0.0000    0.0000 C.2     1  UNL1        0.0061
     35 C           0.0000    0.0000    0.0000 C.2     1  UNL1        0.0688
     36 C           0.0000    0.0000    0.0000 C.3     1  UNL1        0.3170
     37 C           0.0000    0.0000    0.0000 C.3     1  UNL1        0.0919
@<TRIPOS>BOND
     1     1     2    1
     2     2     3    1
     3     3     4    2
     4     4     5    1
     5     5     6    2
     6     6     7    1
     7     7     8    2
     8     8     9    1
     9     9    10   ar
    10    10    11   ar
    11    11    12   ar
    12    12    13   ar
    13    13    14   ar
    14     9    14   ar
    15    14    15    1
    16    15    16    2
    17    15    17    2
    18    15    18    1
    19    11    19    1
    20    19    20    2
    21    19    21    2
    22    19    22    1
    23     8    23    1
    24    23    24   ar
    25    24    25   ar
    26    25    26   ar
    27    26    27   ar
    28    27    28   ar
    29    23    28   ar
    30    26    29    1
    31    29    30    1
    32    30    31    1
    33    29    32    1
    34    32    33    1
    35     7    34    1
    36    34    35    2
    37     4    35    1
    38     3    36    1
    39    36    37    1
@<TRIPOS>MOLECULE
*****
 42 45 0 0 0
SMALL
GASTEIGER

@<TRIPOS>ATOM
      1 C           0.0000    0.0000    0.0000 C.3     1  UNL1        0.0001
      2 C           0.0000    0.0000    0.0000 C.3     1  UNL1        0.0036
      3 C           0.0000    0.0000    0.0000 C.3     1  UNL1        0.0404
      4 C           0.0000    0.0000    0.0000 C.3     1  UNL1        0.1393
      5 C           0.0000    0.0000    0.0000 C.3     1  UNL1        0.0451
      6 C           0.0000    0.0000    0.0000 C.3     1  UNL1        0.0299
      7 C           0.0000    0.0000    0.0000 C.ar    1  UNL1       -0.0221
      8 C           0.0000    0.0000    0.0000 C.ar    1  UNL1       -0.0043
      9 C           0.0000    0.0000    0.0000 C.ar    1  UNL1       -0.0003
     10 C           0.0000    0.0000    0.0000 C.ar    1  UNL1       -0.0000
     11 C           0.0000    0.0000    0.0000 C.ar    1  UNL1       -0.0003
     12 C           0.0000    0.0000    0.0000 C.ar    1  UNL1       -0.0043
     13 C           0.0000    0.0000    0.0000 C.3     1  UNL1        0.0496
     14 C           0.0000    0.0000    0.0000 C.2     1  UNL1       -0.1091
     15 C           0.0000    0.0000    0.0000 C.2     1  UNL1        0.0379
     16 C           0.0000    0.0000    0.0000 C.2     1  UNL1        0.3358
     17 O           0.0000    0.0000    0.0000 O.2     1  UNL1       -0.2453
     18 O           0.0000    0.0000    0.0000 O.3     1  UNL1       -0.4526
     19 C           0.0000    0.0000    0.0000 C.3     1  UNL1        0.0493
     20 C           0.0000    0.0000    0.0000 C.ar    1  UNL1       -0.0201
     21 C           0.0000    0.0000    0.0000 C.ar    1  UNL1       -0.0041
     22 C           0.0000    0.0000    0.0000 C.ar    1  UNL1       -0.0022
     23 C           0.0000    0.0000    0.0000 C.ar    1  UNL1       -0.0239
     24 C           0.0000    0.0000    0.0000 C.ar    1  UNL1       -0.1126
     25 C           0.0000    0.0000    0.0000 C.ar    1  UNL1       -0.0278
     26 N           0.0000    0.0000    0.0000 N.pl3   1  UNL1       -0.5345
     27 S           0.0000    0.0000    0.0000 S.O2    1  UNL1       -0.0410
     28 O           0.0000    0.0000    0.0000 O.2     1  UNL1       -0.1827
     29 O           0.0000    0.0000    0.0000 O.2     1  UNL1       -0.1827
     30 C           0.0000    0.0000    0.0000 C.ar    1  UNL1        0.1696
     31 C           0.0000    0.0000    0.0000 C.ar    1  UNL1        0.0364
     32 C           0.0000    0.0000    0.0000 C.ar    1  UNL1        0.0083
     33 C           0.0000    0.0000    0.0000 C.ar    1  UNL1        0.0906
     34 C           0.0000    0.0000    0.0000 C.ar    1  UNL1        0.1041
     35 N           0.0000    0.0000    0.0000 N.ar    1  UNL1       -0.2270
     36 C           0.0000    0.0000    0.0000 C.3     1  UNL1        0.4200
     37 F           0.0000    0.0000    0.0000 F       1  UNL1       -0.1658
     38 F           0.0000    0.0000    0.0000 F       1  UNL1       -0.1658
     39 F           0.0000    0.0000    0.0000 F       1  UNL1       -0.1658
     40 C           0.0000    0.0000    0.0000 C.3     1  UNL1        0.0089
     41 C           0.0000    0.0000    0.0000 C.3     1  UNL1        0.0007
     42 O           0.0000    0.0000    0.0000 O.co2   1  UNL1       -0.8757
@<TRIPOS>BOND
     1     1     2    1
     2     2     3    1
     3     3     4    1
     4     4     5    1
     5     5     6    1
     6     6     7    1
     7     7     8   ar
     8     8     9   ar
     9     9    10   ar
    10    10    11   ar
    11    11    12   ar
    12     7    12   ar
    13     4    13    1
    14    13    14    1
    15    14    15    2
    16    15    16    1
    17    16    17    2
    18    16    18    1
    19     4    18    1
    20    15    19    1
    21    19    20    1
    22    20    21   ar
    23    21    22   ar
    24    22    23   ar
    25    23    24   ar
    26    24    25   ar
    27    20    25   ar
    28    24    26    1
    29    26    27    1
    30    27    28    2
    31    27    29    2
    32    27    30    1
    33    30    31   ar
    34    31    32   ar
    35    32    33   ar
    36    33    34   ar
    37    34    35   ar
    38    30    35   ar
    39    33    36    1
    40    36    37    1
    41    36    38    1
    42    36    39    1
    43    19    40    1
    44    40    41    1
    45    14    42    1
@<TRIPOS>MOLECULE
*****
 42 46 0 0 0
SMALL
GASTEIGER

@<TRIPOS>ATOM
      1 O           0.0000    0.0000    0.0000 O.3     1  UNL1       -0.2865
      2 C           0.0000    0.0000    0.0000 C.ar    1  UNL1        0.1984
      3 C           0.0000    0.0000    0.0000 C.ar    1  UNL1        0.0594
      4 C           0.0000    0.0000    0.0000 C.ar    1  UNL1        0.0965
      5 C           0.0000    0.0000    0.0000 C.ar    1  UNL1        0.0176
      6 C           0.0000    0.0000    0.0000 C.ar    1  UNL1        0.0071
      7 C           0.0000    0.0000    0.0000 C.ar    1  UNL1        0.0585
      8 C           0.0000    0.0000    0.0000 C.ar    1  UNL1        0.1072
      9 N           0.0000    0.0000    0.0000 N.2     1  UNL1       -0.1479
     10 N           0.0000    0.0000    0.0000 N.2     1  UNL1       -0.1480
     11 C           0.0000    0.0000    0.0000 C.ar    1  UNL1        0.1030
     12 C           0.0000    0.0000    0.0000 C.ar    1  UNL1        0.0222
     13 C           0.0000    0.0000    0.0000 C.ar    1  UNL1        0.0181
     14 C           0.0000    0.0000    0.0000 C.ar    1  UNL1        0.0717
     15 C           0.0000    0.0000    0.0000 C.ar    1  UNL1        0.0329
     16 C           0.0000    0.0000    0.0000 C.ar    1  UNL1        0.0219
     17 C           0.0000    0.0000    0.0000 C.ar    1  UNL1        0.0017
     18 C           0.0000    0.0000    0.0000 C.ar    1  UNL1        0.0013
     19 C           0.0000    0.0000    0.0000 C.ar    1  UNL1        0.0174
     20 C           0.0000    0.0000    0.0000 C.ar    1  UNL1        0.0946
     21 S           0.0000    0.0000    0.0000 S.3     1  UNL1       -0.0500
     22 O           0.0000    0.0000    0.0000 O.2     1  UNL1       -0.1802
     23 O           0.0000    0.0000    0.0000 O.2     1  UNL1       -0.1802
     24 O           0.0000    0.0000    0.0000 O.co2   1  UNL1       -0.7201
     25 N           0.0000    0.0000    0.0000 N.pl3   1  UNL1       -0.2124
     26 C           0.0000    0.0000    0.0000 C.ar    1  UNL1        0.0705
     27 C           0.0000    0.0000    0.0000 C.ar    1  UNL1        0.0165
     28 C           0.0000    0.0000    0.0000 C.ar    1  UNL1        0.0013
     29 C           0.0000    0.0000    0.0000 C.ar    1  UNL1        0.0001
     30 C           0.0000    0.0000    0.0000 C.ar    1  UNL1        0.0013
     31 C           0.0000    0.0000    0.0000 C.ar    1  UNL1        0.0165
     32 C           0.0000    0.0000    0.0000 C.ar    1  UNL1        0.0383
     33 C           0.0000    0.0000    0.0000 C.ar    1  UNL1        0.0949
     34 C           0.0000    0.0000    0.0000 C.ar    1  UNL1        0.0176
     35 S           0.0000    0.0000    0.0000 S.3     1  UNL1       -0.0499
     36 O           0.0000    0.0000    0.0000 O.2     1  UNL1       -0.1802
     37 O           0.0000    0.0000    0.0000 O.2     1  UNL1       -0.1802
     38 O           0.0000    0.0000    0.0000 O.co2   1  UNL1       -0.7201
     39 S           0.0000    0.0000    0.0000 S.3     1  UNL1       -0.0499
     40 O           0.0000    0.0000    0.0000 O.2     1  UNL1       -0.1802
     41 O           0.0000    0.0000    0.0000 O.2     1  UNL1       -0.1802
     42 O           0.0000    0.0000    0.0000 O.co2   1  UNL1       -0.7201
@<TRIPOS>BOND
     1     1     2    1
     2     2     3   ar
     3     3     4   ar
     4     4     5   ar
     5     5     6   ar
     6     6     7   ar
     7     2     7   ar
     8     7     8   ar
     9     8     9    1
    10     9    10    2
    11    10    11    1
    12    11    12   ar
    13    12    13   ar
    14    13    14   ar
    15    14    15   ar
    16    15    16   ar
    17    11    16   ar
    18    16    17   ar
    19    17    18   ar
    20    18    19   ar
    21    19    20   ar
    22    15    20   ar
    23    20    21    1
    24    21    22    2
    25    21    23    2
    26    21    24    1
    27    14    25    1
    28    25    26    1
    29    26    27   ar
    30    27    28   ar
    31    28    29   ar
    32    29    30   ar
    33    30    31   ar
    34    26    31   ar
    35     8    32   ar
    36    32    33   ar
    37    33    34   ar
    38     6    34   ar
    39    33    35    1
    40    35    36    2
    41    35    37    2
    42    35    38    1
    43     4    39    1
    44    39    40    2
    45    39    41    2
    46    39    42    1
@<TRIPOS>MOLECULE
*****
 42 46 0 0 0
SMALL
GASTEIGER

@<TRIPOS>ATOM
      1 C           0.0000    0.0000    0.0000 C.3     1  UNL1        0.0051
      2 C           0.0000    0.0000    0.0000 C.3     1  UNL1        0.0276
      3 C           0.0000    0.0000    0.0000 C.2     1  UNL1       -0.0071
      4 C           0.0000    0.0000    0.0000 C.2     1  UNL1       -0.0068
      5 C           0.0000    0.0000    0.0000 C.3     1  UNL1        0.0323
      6 C           0.0000    0.0000    0.0000 C.2     1  UNL1        0.0752
      7 C           0.0000    0.0000    0.0000 C.2     1  UNL1       -0.0055
      8 C           0.0000    0.0000    0.0000 C.ar    1  UNL1       -0.1221
      9 N           0.0000    0.0000    0.0000 N.ar    1  UNL1       -0.6584
     10 C           0.0000    0.0000    0.0000 C.ar    1  UNL1       -0.1221
     11 C           0.0000    0.0000    0.0000 C.ar    1  UNL1       -0.0497
     12 C           0.0000    0.0000    0.0000 C.ar    1  UNL1       -0.0500
     13 C           0.0000    0.0000    0.0000 C.3     1  UNL1        0.0242
     14 C           0.0000    0.0000    0.0000 C.3     1  UNL1        0.0050
     15 C           0.0000    0.0000    0.0000 C.3     1  UNL1        0.0288
     16 C           0.0000    0.0000    0.0000 C.2     1  UNL1       -0.0055
     17 C           0.0000    0.0000    0.0000 C.2     1  UNL1        0.0752
     18 N           0.0000    0.0000    0.0000 N.2     1  UNL1       -0.2461
     19 C           0.0000    0.0000    0.0000 C.2     1  UNL1        0.0752
     20 C           0.0000    0.0000    0.0000 C.2     1  UNL1       -0.0055
     21 C           0.0000    0.0000    0.0000 C.ar    1  UNL1       -0.1221
     22 N           0.0000    0.0000    0.0000 N.ar    1  UNL1       -0.6584
     23 C           0.0000    0.0000    0.0000 C.ar    1  UNL1       -0.1221
     24 C           0.0000    0.0000    0.0000 C.2     1  UNL1       -0.0055
     25 C           0.0000    0.0000    0.0000 C.2     1  UNL1        0.0752
     26 N           0.0000    0.0000    0.0000 N.2     1  UNL1       -0.2461
     27 C           0.0000    0.0000    0.0000 C.ar    1  UNL1       -0.0497
     28 C           0.0000    0.0000    0.0000 C.3     1  UNL1        0.0288
     29 C           0.0000    0.0000    0.0000 C.ar    1  UNL1       -0.0496
     30 C           0.0000    0.0000    0.0000 C.3     1  UNL1        0.0301
     31 C           0.0000    0.0000    0.0000 C.3     1  UNL1        0.0463
     32 C           0.0000    0.0000    0.0000 C.2     1  UNL1        0.0507
     33 O           0.0000    0.0000    0.0000 O.co2   1  UNL1       -0.5492
     34 O           0.0000    0.0000    0.0000 O.co2   1  UNL1       -0.5492
     35 C           0.0000    0.0000    0.0000 C.2     1  UNL1       -0.0067
     36 C           0.0000    0.0000    0.0000 C.2     1  UNL1       -0.0068
     37 C           0.0000    0.0000    0.0000 C.3     1  UNL1        0.0323
     38 C           0.0000    0.0000    0.0000 C.3     1  UNL1        0.0335
     39 C           0.0000    0.0000    0.0000 C.3     1  UNL1        0.0464
     40 C           0.0000    0.0000    0.0000 C.2     1  UNL1        0.0507
     41 O           0.0000    0.0000    0.0000 O.co2   1  UNL1       -0.5492
     42 O           0.0000    0.0000    0.0000 O.co2   1  UNL1       -0.5492
@<TRIPOS>BOND
     1     1     2    1
     2     2     3    1
     3     3     4    2
     4     4     5    1
     5     4     6    1
     6     6     7    2
     7     7     8    1
     8     8     9   ar
     9     9    10   ar
    10    10    11   ar
    11    11    12   ar
    12     8    12   ar
    13    12    13    1
    14    13    14    1
    15    11    15    1
    16    10    16    1
    17    16    17    2
    18    17    18    1
    19    18    19    2
    20    19    20    1
    21    20    21    2
    22    21    22   ar
    23    22    23   ar
    24    23    24    2
    25    24    25    1
    26     3    25    1
    27    25    26    2
    28     6    26    1
    29    23    27   ar
    30    27    28    1
    31    27    29   ar
    32    21    29   ar
    33    29    30    1
    34    30    31    1
    35    31    32    1
    36    32    33   ar
    37    32    34   ar
    38    19    35    1
    39    35    36    2
    40    17    36    1
    41    36    37    1
    42    35    38    1
    43    38    39    1
    44    39    40    1
    45    40    41   ar
    46    40    42   ar
@<TRIPOS>MOLECULE
*****
 40 44 0 0 0
SMALL
GASTEIGER

@<TRIPOS>ATOM
      1 O           0.0000    0.0000    0.0000 O.3     1  UNL1       -0.0427
      2 S           0.0000    0.0000    0.0000 S.3     1  UNL1        0.1392
      3 O           0.0000    0.0000    0.0000 O.2     1  UNL1       -0.1397
      4 O           0.0000    0.0000    0.0000 O.2     1  UNL1       -0.1397
      5 C           0.0000    0.0000    0.0000 C.ar    1  UNL1        0.1169
      6 C           0.0000    0.0000    0.0000 C.ar    1  UNL1        0.0402
      7 C           0.0000    0.0000    0.0000 C.ar    1  UNL1        0.1390
      8 C           0.0000    0.0000    0.0000 C.ar    1  UNL1        0.0382
      9 C           0.0000    0.0000    0.0000 C.ar    1  UNL1        0.0597
     10 C           0.0000    0.0000    0.0000 C.ar    1  UNL1       -0.0801
     11 N           0.0000    0.0000    0.0000 N.ar    1  UNL1       -0.6406
     12 C           0.0000    0.0000    0.0000 C.ar    1  UNL1       -0.0331
     13 N           0.0000    0.0000    0.0000 N.ar    1  UNL1       -0.2708
     14 C           0.0000    0.0000    0.0000 C.ar    1  UNL1       -0.0048
     15 C           0.0000    0.0000    0.0000 C.ar    1  UNL1       -0.0003
     16 C           0.0000    0.0000    0.0000 C.ar    1  UNL1       -0.0003
     17 C           0.0000    0.0000    0.0000 C.ar    1  UNL1       -0.0048
     18 C           0.0000    0.0000    0.0000 C.ar    1  UNL1       -0.0003
     19 C           0.0000    0.0000    0.0000 C.ar    1  UNL1       -0.0003
     20 C           0.0000    0.0000    0.0000 C.ar    1  UNL1       -0.0331
     21 N           0.0000    0.0000    0.0000 N.ar    1  UNL1       -0.2708
     22 C           0.0000    0.0000    0.0000 C.ar    1  UNL1        0.0597
     23 C           0.0000    0.0000    0.0000 C.ar    1  UNL1       -0.0801
     24 N           0.0000    0.0000    0.0000 N.ar    1  UNL1       -0.6406
     25 C           0.0000    0.0000    0.0000 C.ar    1  UNL1        0.1169
     26 C           0.0000    0.0000    0.0000 C.ar    1  UNL1        0.0402
     27 C           0.0000    0.0000    0.0000 C.ar    1  UNL1        0.1390
     28 C           0.0000    0.0000    0.0000 C.ar    1  UNL1        0.0382
     29 S           0.0000    0.0000    0.0000 S.3     1  UNL1        0.1409
     30 O           0.0000    0.0000    0.0000 O.2     1  UNL1       -0.1397
     31 O           0.0000    0.0000    0.0000 O.2     1  UNL1       -0.1397
     32 O           0.0000    0.0000    0.0000 O.3     1  UNL1       -0.0426
     33 S           0.0000    0.0000    0.0000 S.3     1  UNL1        0.1392
     34 O           0.0000    0.0000    0.0000 O.2     1  UNL1       -0.1397
     35 O           0.0000    0.0000    0.0000 O.2     1  UNL1       -0.1397
     36 O           0.0000    0.0000    0.0000 O.3     1  UNL1       -0.0427
     37 S           0.0000    0.0000    0.0000 S.3     1  UNL1        0.1409
     38 O           0.0000    0.0000    0.0000 O.2     1  UNL1       -0.1397
     39 O           0.0000    0.0000    0.0000 O.2     1  UNL1       -0.1397
     40 O           0.0000    0.0000    0.0000 O.3     1  UNL1       -0.0426
@<TRIPOS>BOND
     1     1     2    1
     2     2     3    2
     3     2     4    2
     4     2     5    1
     5     5     6   ar
     6     6     7   ar
     7     7     8   ar
     8     8     9   ar
     9     9    10   ar
    10     5    10   ar
    11    10    11   ar
    12    11    12   ar
    13    12    13   ar
    14     9    13   ar
    15    12    14    1
    16    14    15   ar
    17    15    16   ar
    18    16    17   ar
    19    17    18   ar
    20    18    19   ar
    21    14    19   ar
    22    17    20    1
    23    20    21   ar
    24    21    22   ar
    25    22    23   ar
    26    23    24   ar
    27    20    24   ar
    28    23    25   ar
    29    25    26   ar
    30    26    27   ar
    31    27    28   ar
    32    22    28   ar
    33    27    29    1
    34    29    30    2
    35    29    31    2
    36    29    32    1
    37    25    33    1
    38    33    34    2
    39    33    35    2
    40    33    36    1
    41     7    37    1
    42    37    38    2
    43    37    39    2
    44    37    40    1
@<TRIPOS>MOLECULE
*****
 52 58 0 0 0
SMALL
GASTEIGER

@<TRIPOS>ATOM
      1 C           0.0000    0.0000    0.0000 C.3     1  UNL1        0.2525
      2 O           0.0000    0.0000    0.0000 O.3     1  UNL1       -0.4717
      3 C           0.0000    0.0000    0.0000 C.ar    1  UNL1        0.1361
      4 C           0.0000    0.0000    0.0000 C.ar    1  UNL1        0.0368
      5 C           0.0000    0.0000    0.0000 C.ar    1  UNL1        0.0076
      6 C           0.0000    0.0000    0.0000 C.ar    1  UNL1        0.0515
      7 C           0.0000    0.0000    0.0000 C.ar    1  UNL1        0.0832
      8 C           0.0000    0.0000    0.0000 C.ar    1  UNL1        0.0298
      9 C           0.0000    0.0000    0.0000 C.3     1  UNL1        0.0358
     10 N           0.0000    0.0000    0.0000 N.ar    1  UNL1       -0.2433
     11 C           0.0000    0.0000    0.0000 C.ar    1  UNL1        0.1080
     12 C           0.0000    0.0000    0.0000 C.ar    1  UNL1        0.0581
     13 C           0.0000    0.0000    0.0000 C.ar    1  UNL1        0.1413
     14 O           0.0000    0.0000    0.0000 O.3     1  UNL1       -0.4790
     15 C           0.0000    0.0000    0.0000 C.3     1  UNL1        0.1669
     16 C           0.0000    0.0000    0.0000 C.3     1  UNL1        0.0531
     17 C           0.0000    0.0000    0.0000 C.3     1  UNL1        0.0905
     18 C           0.0000    0.0000    0.0000 C.3     1  UNL1        0.0890
     19 C           0.0000    0.0000    0.0000 C.3     1  UNL1        0.0531
     20 C           0.0000    0.0000    0.0000 C.2     1  UNL1        0.2258
     21 O           0.0000    0.0000    0.0000 O.2     1  UNL1       -0.2749
     22 N           0.0000    0.0000    0.0000 N.am    1  UNL1       -0.2778
     23 C           0.0000    0.0000    0.0000 C.3     1  UNL1        0.1148
     24 C           0.0000    0.0000    0.0000 C.3     1  UNL1        0.0935
     25 C           0.0000    0.0000    0.0000 C.3     1  UNL1        0.0218
     26 C           0.0000    0.0000    0.0000 C.3     1  UNL1        0.0064
     27 C           0.0000    0.0000    0.0000 C.3     1  UNL1        0.0258
     28 C           0.0000    0.0000    0.0000 C.2     1  UNL1       -0.0306
     29 C           0.0000    0.0000    0.0000 C.2     1  UNL1       -0.0289
     30 C           0.0000    0.0000    0.0000 C.3     1  UNL1        0.0472
     31 C           0.0000    0.0000    0.0000 C.3     1  UNL1        0.1164
     32 N           0.0000    0.0000    0.0000 N.am    1  UNL1       -0.2030
     33 C           0.0000    0.0000    0.0000 C.2     1  UNL1        0.2417
     34 O           0.0000    0.0000    0.0000 O.2     1  UNL1       -0.2733
     35 C           0.0000    0.0000    0.0000 C.3     1  UNL1        0.0322
     36 C           0.0000    0.0000    0.0000 C.2     1  UNL1        0.0886
     37 O           0.0000    0.0000    0.0000 O.2     1  UNL1       -0.3150
     38 N           0.0000    0.0000    0.0000 N.am    1  UNL1       -0.5086
     39 S           0.0000    0.0000    0.0000 S.O2    1  UNL1       -0.0770
     40 O           0.0000    0.0000    0.0000 O.2     1  UNL1       -0.1885
     41 O           0.0000    0.0000    0.0000 O.2     1  UNL1       -0.1885
     42 C           0.0000    0.0000    0.0000 C.3     1  UNL1        0.1126
     43 C           0.0000    0.0000    0.0000 C.3     1  UNL1        0.0237
     44 C           0.0000    0.0000    0.0000 C.3     1  UNL1        0.0237
     45 C           0.0000    0.0000    0.0000 C.ar    1  UNL1        0.1280
     46 S           0.0000    0.0000    0.0000 S.2     1  UNL1       -0.0648
     47 C           0.0000    0.0000    0.0000 C.ar    1  UNL1        0.0516
     48 C           0.0000    0.0000    0.0000 C.ar    1  UNL1        0.0657
     49 N           0.0000    0.0000    0.0000 N.ar    1  UNL1       -0.2411
     50 C           0.0000    0.0000    0.0000 C.3     1  UNL1        0.0408
     51 C           0.0000    0.0000    0.0000 C.3     1  UNL1        0.0063
     52 C           0.0000    0.0000    0.0000 C.3     1  UNL1        0.0063
@<TRIPOS>BOND
     1     1     2    1
     2     2     3    1
     3     3     4   ar
     4     4     5   ar
     5     5     6   ar
     6     6     7   ar
     7     7     8   ar
     8     3     8   ar
     9     8     9    1
    10     7    10   ar
    11    10    11   ar
    12    11    12   ar
    13    12    13   ar
    14     6    13   ar
    15    13    14    1
    16    14    15    1
    17    15    16    1
    18    16    17    1
    19    17    18    1
    20    18    19    1
    21    15    19    1
    22    18    20    1
    23    20    21    2
    24    20    22   am
    25    22    23    1
    26    22    24    1
    27    24    25    1
    28    25    26    1
    29    26    27    1
    30    27    28    1
    31    28    29    2
    32    29    30    1
    33    30    31    1
    34    31    32    1
    35    32    33   am
    36    17    33    1
    37    33    34    2
    38    31    35    1
    39    30    35    1
    40    31    36    1
    41    36    37    2
    42    36    38    1
    43    38    39    1
    44    39    40    2
    45    39    41    2
    46    39    42    1
    47    42    43    1
    48    43    44    1
    49    42    44    1
    50    11    45    1
    51    45    46   ar
    52    46    47   ar
    53    47    48   ar
    54    48    49   ar
    55    45    49   ar
    56    48    50    1
    57    50    51    1
    58    50    52    1
@<TRIPOS>MOLECULE
*****
 44 48 0 0 0
SMALL
GASTEIGER

@<TRIPOS>ATOM
      1 C           0.0000    0.0000    0.0000 C.3     1  UNL1        0.0051
      2 C           0.0000    0.0000    0.0000 C.3     1  UNL1        0.0276
      3 C           0.0000    0.0000    0.0000 C.2     1  UNL1       -0.0071
      4 C           0.0000    0.0000    0.0000 C.2     1  UNL1       -0.0068
      5 C           0.0000    0.0000    0.0000 C.3     1  UNL1        0.0323
      6 C           0.0000    0.0000    0.0000 C.2     1  UNL1        0.0753
      7 C           0.0000    0.0000    0.0000 C.2     1  UNL1       -0.0052
      8 C           0.0000    0.0000    0.0000 C.ar    1  UNL1       -0.1181
      9 N           0.0000    0.0000    0.0000 N.ar    1  UNL1       -0.6582
     10 C           0.0000    0.0000    0.0000 C.ar    1  UNL1       -0.1221
     11 C           0.0000    0.0000    0.0000 C.ar    1  UNL1       -0.0457
     12 C           0.0000    0.0000    0.0000 C.ar    1  UNL1       -0.0279
     13 C           0.0000    0.0000    0.0000 C.2     1  UNL1       -0.0021
     14 C           0.0000    0.0000    0.0000 C.2     1  UNL1       -0.0001
     15 C           0.0000    0.0000    0.0000 C.3     1  UNL1        0.0291
     16 C           0.0000    0.0000    0.0000 C.2     1  UNL1       -0.0096
     17 C           0.0000    0.0000    0.0000 C.2     1  UNL1        0.0568
     18 N           0.0000    0.0000    0.0000 N.2     1  UNL1       -0.2544
     19 C           0.0000    0.0000    0.0000 C.2     1  UNL1        0.0532
     20 C           0.0000    0.0000    0.0000 C.2     1  UNL1       -0.0252
     21 C           0.0000    0.0000    0.0000 C.ar    1  UNL1       -0.1210
     22 N           0.0000    0.0000    0.0000 N.ar    1  UNL1       -0.6584
     23 C           0.0000    0.0000    0.0000 C.ar    1  UNL1       -0.1218
     24 C           0.0000    0.0000    0.0000 C.2     1  UNL1       -0.0055
     25 C           0.0000    0.0000    0.0000 C.2     1  UNL1        0.0752
     26 N           0.0000    0.0000    0.0000 N.2     1  UNL1       -0.2461
     27 C           0.0000    0.0000    0.0000 C.ar    1  UNL1       -0.0447
     28 C           0.0000    0.0000    0.0000 C.3     1  UNL1        0.0291
     29 C           0.0000    0.0000    0.0000 C.ar    1  UNL1       -0.0142
     30 C           0.0000    0.0000    0.0000 C.2     1  UNL1        0.0708
     31 O           0.0000    0.0000    0.0000 O.co2   1  UNL1       -0.5447
     32 O           0.0000    0.0000    0.0000 O.co2   1  UNL1       -0.5447
     33 C           0.0000    0.0000    0.0000 C.3     1  UNL1        0.0673
     34 C           0.0000    0.0000    0.0000 C.2     1  UNL1        0.0547
     35 O           0.0000    0.0000    0.0000 O.co2   1  UNL1       -0.5488
     36 O           0.0000    0.0000    0.0000 O.co2   1  UNL1       -0.5488
     37 C           0.0000    0.0000    0.0000 C.3     1  UNL1        0.0458
     38 C           0.0000    0.0000    0.0000 C.3     1  UNL1        0.0122
     39 C           0.0000    0.0000    0.0000 C.3     1  UNL1        0.0421
     40 C           0.0000    0.0000    0.0000 C.2     1  UNL1        0.0503
     41 O           0.0000    0.0000    0.0000 O.co2   1  UNL1       -0.5492
     42 O           0.0000    0.0000    0.0000 O.co2   1  UNL1       -0.5492
     43 C           0.0000    0.0000    0.0000 C.3     1  UNL1        0.0457
     44 C           0.0000    0.0000    0.0000 C.3     1  UNL1        0.0067
@<TRIPOS>BOND
     1     1     2    1
     2     2     3    1
     3     3     4    2
     4     4     5    1
     5     4     6    1
     6     6     7    2
     7     7     8    1
     8     8     9   ar
     9     9    10   ar
    10    10    11   ar
    11    11    12   ar
    12     8    12   ar
    13    12    13    1
    14    13    14    2
    15    11    15    1
    16    10    16    1
    17    16    17    2
    18    17    18    1
    19    18    19    2
    20    19    20    1
    21    20    21    2
    22    21    22   ar
    23    22    23   ar
    24    23    24    2
    25    24    25    1
    26     3    25    1
    27    25    26    2
    28     6    26    1
    29    23    27   ar
    30    27    28    1
    31    27    29   ar
    32    21    29   ar
    33    29    30    1
    34    30    31   ar
    35    30    32   ar
    36    20    33    1
    37    33    34    1
    38    34    35   ar
    39    34    36   ar
    40    19    37    1
    41    37    38    1
    42    38    39    1
    43    39    40    1
    44    40    41   ar
    45    40    42   ar
    46    37    43    1
    47    17    43    1
    48    43    44    1
@<TRIPOS>MOLECULE
*****
 56 63 0 0 0
SMALL
GASTEIGER

@<TRIPOS>ATOM
      1 C           0.0000    0.0000    0.0000 C.3     1  UNL1        0.2528
      2 O           0.0000    0.0000    0.0000 O.3     1  UNL1       -0.4654
      3 C           0.0000    0.0000    0.0000 C.ar    1  UNL1        0.2073
      4 C           0.0000    0.0000    0.0000 C.ar    1  UNL1        0.0433
      5 C           0.0000    0.0000    0.0000 C.ar    1  UNL1        0.0035
      6 C           0.0000    0.0000    0.0000 C.ar    1  UNL1        0.0065
      7 C           0.0000    0.0000    0.0000 C.ar    1  UNL1        0.0782
      8 C           0.0000    0.0000    0.0000 C.ar    1  UNL1        0.3202
      9 N           0.0000    0.0000    0.0000 N.ar    1  UNL1        0.0705
     10 N           0.0000    0.0000    0.0000 N.ar    1  UNL1        0.0582
     11 C           0.0000    0.0000    0.0000 C.ar    1  UNL1        0.2551
     12 N           0.0000    0.0000    0.0000 N.ar    1  UNL1       -0.0849
     13 N           0.0000    0.0000    0.0000 N.ar    1  UNL1        0.0040
     14 C           0.0000    0.0000    0.0000 C.ar    1  UNL1        0.1471
     15 C           0.0000    0.0000    0.0000 C.ar    1  UNL1        0.0313
     16 C           0.0000    0.0000    0.0000 C.ar    1  UNL1        0.0770
     17 C           0.0000    0.0000    0.0000 C.ar    1  UNL1        0.2902
     18 C           0.0000    0.0000    0.0000 C.ar    1  UNL1        0.0770
     19 C           0.0000    0.0000    0.0000 C.ar    1  UNL1        0.0313
     20 N           0.0000    0.0000    0.0000 N.pl3   1  UNL1        0.0809
     21 O           0.0000    0.0000    0.0000 O.2     1  UNL1        0.0415
     22 O           0.0000    0.0000    0.0000 O.co2   1  UNL1       -0.5760
     23 C           0.0000    0.0000    0.0000 C.ar    1  UNL1        0.0436
     24 C           0.0000    0.0000    0.0000 C.ar    1  UNL1        0.0033
     25 C           0.0000    0.0000    0.0000 C.ar    1  UNL1        0.0001
     26 C           0.0000    0.0000    0.0000 C.ar    1  UNL1        0.0000
     27 C           0.0000    0.0000    0.0000 C.ar    1  UNL1        0.0001
     28 C           0.0000    0.0000    0.0000 C.ar    1  UNL1        0.0033
     29 C           0.0000    0.0000    0.0000 C.ar    1  UNL1        0.0035
     30 C           0.0000    0.0000    0.0000 C.ar    1  UNL1        0.0065
     31 C           0.0000    0.0000    0.0000 C.ar    1  UNL1        0.0782
     32 C           0.0000    0.0000    0.0000 C.ar    1  UNL1        0.3202
     33 C           0.0000    0.0000    0.0000 C.ar    1  UNL1        0.2073
     34 C           0.0000    0.0000    0.0000 C.ar    1  UNL1        0.0433
     35 O           0.0000    0.0000    0.0000 O.3     1  UNL1       -0.4654
     36 C           0.0000    0.0000    0.0000 C.3     1  UNL1        0.2528
     37 N           0.0000    0.0000    0.0000 N.ar    1  UNL1        0.0705
     38 N           0.0000    0.0000    0.0000 N.ar    1  UNL1        0.0582
     39 C           0.0000    0.0000    0.0000 C.ar    1  UNL1        0.2551
     40 N           0.0000    0.0000    0.0000 N.ar    1  UNL1       -0.0849
     41 N           0.0000    0.0000    0.0000 N.ar    1  UNL1        0.0040
     42 C           0.0000    0.0000    0.0000 C.ar    1  UNL1        0.1471
     43 C           0.0000    0.0000    0.0000 C.ar    1  UNL1        0.0313
     44 C           0.0000    0.0000    0.0000 C.ar    1  UNL1        0.0770
     45 C           0.0000    0.0000    0.0000 C.ar    1  UNL1        0.2902
     46 C           0.0000    0.0000    0.0000 C.ar    1  UNL1        0.0770
     47 C           0.0000    0.0000    0.0000 C.ar    1  UNL1        0.0313
     48 N           0.0000    0.0000    0.0000 N.pl3   1  UNL1        0.0809
     49 O           0.0000    0.0000    0.0000 O.2     1  UNL1        0.0415
     50 O           0.0000    0.0000    0.0000 O.co2   1  UNL1       -0.5760
     51 C           0.0000    0.0000    0.0000 C.ar    1  UNL1        0.0436
     52 C           0.0000    0.0000    0.0000 C.ar    1  UNL1        0.0033
     53 C           0.0000    0.0000    0.0000 C.ar    1  UNL1        0.0001
     54 C           0.0000    0.0000    0.0000 C.ar    1  UNL1        0.0000
     55 C           0.0000    0.0000    0.0000 C.ar    1  UNL1        0.0001
     56 C           0.0000    0.0000    0.0000 C.ar    1  UNL1        0.0033
@<TRIPOS>BOND
     1     1     2    1
     2     2     3    1
     3     3     4   ar
     4     4     5   ar
     5     5     6   ar
     6     6     7   ar
     7     7     8   ar
     8     3     8   ar
     9     8     9    1
    10     9    10   ar
    11    10    11   ar
    12    11    12   ar
    13    12    13   ar
    14     9    13   ar
    15    13    14    1
    16    14    15   ar
    17    15    16   ar
    18    16    17   ar
    19    17    18   ar
    20    18    19   ar
    21    14    19   ar
    22    17    20    1
    23    20    21    2
    24    20    22    1
    25    11    23    1
    26    23    24   ar
    27    24    25   ar
    28    25    26   ar
    29    26    27   ar
    30    27    28   ar
    31    23    28   ar
    32     5    29    1
    33    29    30   ar
    34    30    31   ar
    35    31    32   ar
    36    32    33   ar
    37    33    34   ar
    38    29    34   ar
    39    33    35    1
    40    35    36    1
    41    32    37    1
    42    37    38   ar
    43    38    39   ar
    44    39    40   ar
    45    40    41   ar
    46    37    41   ar
    47    41    42    1
    48    42    43   ar
    49    43    44   ar
    50    44    45   ar
    51    45    46   ar
    52    46    47   ar
    53    42    47   ar
    54    45    48    1
    55    48    49    2
    56    48    50    1
    57    39    51    1
    58    51    52   ar
    59    52    53   ar
    60    53    54   ar
    61    54    55   ar
    62    55    56   ar
    63    51    56   ar
@<TRIPOS>MOLECULE
*****
 52 56 0 0 0
SMALL
GASTEIGER

@<TRIPOS>ATOM
      1 C           0.0000    0.0000    0.0000 C.3     1  UNL1        0.0004
      2 C           0.0000    0.0000    0.0000 C.3     1  UNL1        0.0063
      3 C           0.0000    0.0000    0.0000 C.3     1  UNL1        0.0457
      4 C           0.0000    0.0000    0.0000 C.2     1  UNL1        0.0568
      5 N           0.0000    0.0000    0.0000 N.2     1  UNL1       -0.2541
      6 C           0.0000    0.0000    0.0000 C.2     1  UNL1        0.0568
      7 C           0.0000    0.0000    0.0000 C.2     1  UNL1       -0.0092
      8 C           0.0000    0.0000    0.0000 C.ar    1  UNL1       -0.1156
      9 N           0.0000    0.0000    0.0000 N.ar    1  UNL1       -0.6581
     10 C           0.0000    0.0000    0.0000 C.ar    1  UNL1       -0.1220
     11 C           0.0000    0.0000    0.0000 C.ar    1  UNL1       -0.0430
     12 C           0.0000    0.0000    0.0000 C.ar    1  UNL1        0.0069
     13 C           0.0000    0.0000    0.0000 C.2     1  UNL1        0.1714
     14 O           0.0000    0.0000    0.0000 O.2     1  UNL1       -0.2914
     15 C           0.0000    0.0000    0.0000 C.3     1  UNL1        0.0772
     16 C           0.0000    0.0000    0.0000 C.3     1  UNL1        0.0292
     17 C           0.0000    0.0000    0.0000 C.2     1  UNL1       -0.0096
     18 C           0.0000    0.0000    0.0000 C.2     1  UNL1        0.0568
     19 N           0.0000    0.0000    0.0000 N.2     1  UNL1       -0.2544
     20 C           0.0000    0.0000    0.0000 C.2     1  UNL1        0.0534
     21 C           0.0000    0.0000    0.0000 C.2     1  UNL1       -0.0196
     22 C           0.0000    0.0000    0.0000 C.ar    1  UNL1       -0.1175
     23 N           0.0000    0.0000    0.0000 N.ar    1  UNL1       -0.6583
     24 C           0.0000    0.0000    0.0000 C.ar    1  UNL1       -0.1220
     25 C           0.0000    0.0000    0.0000 C.2     1  UNL1       -0.0096
     26 C           0.0000    0.0000    0.0000 C.ar    1  UNL1       -0.0414
     27 C           0.0000    0.0000    0.0000 C.3     1  UNL1        0.0292
     28 C           0.0000    0.0000    0.0000 C.ar    1  UNL1        0.0269
     29 C           0.0000    0.0000    0.0000 C.2     1  UNL1        0.2627
     30 O           0.0000    0.0000    0.0000 O.2     1  UNL1       -0.2684
     31 N           0.0000    0.0000    0.0000 N.am    1  UNL1       -0.1999
     32 C           0.0000    0.0000    0.0000 C.3     1  UNL1        0.1386
     33 C           0.0000    0.0000    0.0000 C.3     1  UNL1        0.1491
     34 S           0.0000    0.0000    0.0000 S.3     1  UNL1       -0.1053
     35 O           0.0000    0.0000    0.0000 O.2     1  UNL1       -0.3714
     36 O           0.0000    0.0000    0.0000 O.2     1  UNL1       -0.3714
     37 O           0.0000    0.0000    0.0000 O.co2   1  UNL1       -0.2907
     38 C           0.0000    0.0000    0.0000 C.3     1  UNL1        0.1353
     39 C           0.0000    0.0000    0.0000 C.2     1  UNL1        0.3216
     40 O           0.0000    0.0000    0.0000 O.2     1  UNL1       -0.2497
     41 O           0.0000    0.0000    0.0000 O.3     1  UNL1       -0.4442
     42 C           0.0000    0.0000    0.0000 C.3     1  UNL1        0.2556
     43 C           0.0000    0.0000    0.0000 C.3     1  UNL1        0.0458
     44 C           0.0000    0.0000    0.0000 C.3     1  UNL1        0.0122
     45 C           0.0000    0.0000    0.0000 C.3     1  UNL1        0.0421
     46 C           0.0000    0.0000    0.0000 C.2     1  UNL1        0.0503
     47 O           0.0000    0.0000    0.0000 O.co2   1  UNL1       -0.5492
     48 O           0.0000    0.0000    0.0000 O.co2   1  UNL1       -0.5492
     49 C           0.0000    0.0000    0.0000 C.3     1  UNL1        0.0457
     50 C           0.0000    0.0000    0.0000 C.3     1  UNL1        0.0067
     51 C           0.0000    0.0000    0.0000 C.3     1  UNL1        0.0457
     52 C           0.0000    0.0000    0.0000 C.3     1  UNL1        0.0067
@<TRIPOS>BOND
     1     1     2    1
     2     2     3    1
     3     3     4    1
     4     4     5    2
     5     5     6    1
     6     6     7    2
     7     7     8    1
     8     8     9   ar
     9     9    10   ar
    10    10    11   ar
    11    11    12   ar
    12     8    12   ar
    13    12    13    1
    14    13    14    2
    15    13    15    1
    16    11    16    1
    17    10    17    1
    18    17    18    2
    19    18    19    1
    20    19    20    2
    21    20    21    1
    22    21    22    2
    23    22    23   ar
    24    23    24   ar
    25    24    25    2
    26     4    25    1
    27    24    26   ar
    28    26    27    1
    29    26    28   ar
    30    22    28   ar
    31    28    29    1
    32    29    30    2
    33    29    31   am
    34    31    32    1
    35    32    33    1
    36    33    34    1
    37    34    35    2
    38    34    36    2
    39    34    37    1
    40    21    38    1
    41    38    39    1
    42    39    40    2
    43    39    41    1
    44    41    42    1
    45    20    43    1
    46    43    44    1
    47    44    45    1
    48    45    46    1
    49    46    47   ar
    50    46    48   ar
    51    43    49    1
    52    18    49    1
    53    49    50    1
    54     6    51    1
    55     3    51    1
    56    51    52    1
@<TRIPOS>MOLECULE
*****
 63 70 0 0 0
SMALL
GASTEIGER

@<TRIPOS>ATOM
      1 C           0.0000    0.0000    0.0000 C.3     1  UNL1        0.2525
      2 O           0.0000    0.0000    0.0000 O.3     1  UNL1       -0.4717
      3 C           0.0000    0.0000    0.0000 C.ar    1  UNL1        0.1361
      4 C           0.0000    0.0000    0.0000 C.ar    1  UNL1        0.0368
      5 C           0.0000    0.0000    0.0000 C.ar    1  UNL1        0.0076
      6 C           0.0000    0.0000    0.0000 C.ar    1  UNL1        0.0515
      7 C           0.0000    0.0000    0.0000 C.ar    1  UNL1        0.0831
      8 C           0.0000    0.0000    0.0000 C.ar    1  UNL1        0.0298
      9 C           0.0000    0.0000    0.0000 C.3     1  UNL1        0.0358
     10 N           0.0000    0.0000    0.0000 N.ar    1  UNL1       -0.2438
     11 C           0.0000    0.0000    0.0000 C.ar    1  UNL1        0.1024
     12 C           0.0000    0.0000    0.0000 C.ar    1  UNL1        0.0576
     13 C           0.0000    0.0000    0.0000 C.ar    1  UNL1        0.1414
     14 O           0.0000    0.0000    0.0000 O.3     1  UNL1       -0.4772
     15 C           0.0000    0.0000    0.0000 C.3     1  UNL1        0.1877
     16 C           0.0000    0.0000    0.0000 C.3     1  UNL1        0.0746
     17 C           0.0000    0.0000    0.0000 C.3     1  UNL1        0.1572
     18 N           0.0000    0.0000    0.0000 N.am    1  UNL1       -0.2691
     19 C           0.0000    0.0000    0.0000 C.3     1  UNL1        0.1372
     20 C           0.0000    0.0000    0.0000 C.2     1  UNL1        0.2261
     21 O           0.0000    0.0000    0.0000 O.2     1  UNL1       -0.2749
     22 C           0.0000    0.0000    0.0000 C.3     1  UNL1        0.0858
     23 C           0.0000    0.0000    0.0000 C.3     1  UNL1        0.0096
     24 C           0.0000    0.0000    0.0000 C.3     1  UNL1        0.0005
     25 C           0.0000    0.0000    0.0000 C.3     1  UNL1        0.0004
     26 C           0.0000    0.0000    0.0000 C.3     1  UNL1        0.0047
     27 C           0.0000    0.0000    0.0000 C.3     1  UNL1        0.0257
     28 C           0.0000    0.0000    0.0000 C.2     1  UNL1       -0.0307
     29 C           0.0000    0.0000    0.0000 C.2     1  UNL1       -0.0289
     30 C           0.0000    0.0000    0.0000 C.3     1  UNL1        0.0472
     31 C           0.0000    0.0000    0.0000 C.3     1  UNL1        0.1164
     32 N           0.0000    0.0000    0.0000 N.am    1  UNL1       -0.2017
     33 C           0.0000    0.0000    0.0000 C.2     1  UNL1        0.2598
     34 O           0.0000    0.0000    0.0000 O.2     1  UNL1       -0.2715
     35 C           0.0000    0.0000    0.0000 C.3     1  UNL1        0.0322
     36 C           0.0000    0.0000    0.0000 C.2     1  UNL1        0.0886
     37 O           0.0000    0.0000    0.0000 O.2     1  UNL1       -0.3150
     38 N           0.0000    0.0000    0.0000 N.am    1  UNL1       -0.5086
     39 S           0.0000    0.0000    0.0000 S.O2    1  UNL1       -0.0770
     40 O           0.0000    0.0000    0.0000 O.2     1  UNL1       -0.1885
     41 O           0.0000    0.0000    0.0000 O.2     1  UNL1       -0.1885
     42 C           0.0000    0.0000    0.0000 C.3     1  UNL1        0.1126
     43 C           0.0000    0.0000    0.0000 C.3     1  UNL1        0.0237
     44 C           0.0000    0.0000    0.0000 C.3     1  UNL1        0.0237
     45 C           0.0000    0.0000    0.0000 C.3     1  UNL1        0.0943
     46 C           0.0000    0.0000    0.0000 C.2     1  UNL1        0.2263
     47 O           0.0000    0.0000    0.0000 O.2     1  UNL1       -0.2749
     48 N           0.0000    0.0000    0.0000 N.am    1  UNL1       -0.2743
     49 C           0.0000    0.0000    0.0000 C.3     1  UNL1        0.0938
     50 C           0.0000    0.0000    0.0000 C.3     1  UNL1        0.0272
     51 C           0.0000    0.0000    0.0000 C.3     1  UNL1        0.0701
     52 C           0.0000    0.0000    0.0000 C.3     1  UNL1        0.2819
     53 C           0.0000    0.0000    0.0000 C.3     1  UNL1        0.1600
     54 F           0.0000    0.0000    0.0000 F       1  UNL1       -0.2025
     55 F           0.0000    0.0000    0.0000 F       1  UNL1       -0.2025
     56 C           0.0000    0.0000    0.0000 C.ar    1  UNL1        0.1056
     57 C           0.0000    0.0000    0.0000 C.ar    1  UNL1        0.0572
     58 S           0.0000    0.0000    0.0000 S.2     1  UNL1       -0.0702
     59 C           0.0000    0.0000    0.0000 C.ar    1  UNL1        0.0879
     60 N           0.0000    0.0000    0.0000 N.ar    1  UNL1       -0.2412
     61 C           0.0000    0.0000    0.0000 C.3     1  UNL1        0.0466
     62 C           0.0000    0.0000    0.0000 C.3     1  UNL1        0.0069
     63 C           0.0000    0.0000    0.0000 C.3     1  UNL1        0.0069
@<TRIPOS>BOND
     1     1     2    1
     2     2     3    1
     3     3     4   ar
     4     4     5   ar
     5     5     6   ar
     6     6     7   ar
     7     7     8   ar
     8     3     8   ar
     9     8     9    1
    10     7    10   ar
    11    10    11   ar
    12    11    12   ar
    13    12    13   ar
    14     6    13   ar
    15    13    14    1
    16    14    15    1
    17    15    16    1
    18    16    17    1
    19    17    18    1
    20    18    19    1
    21    15    19    1
    22    18    20   am
    23    20    21    2
    24    20    22    1
    25    22    23    1
    26    23    24    1
    27    24    25    1
    28    25    26    1
    29    26    27    1
    30    27    28    1
    31    28    29    2
    32    29    30    1
    33    30    31    1
    34    31    32    1
    35    32    33   am
    36    17    33    1
    37    33    34    2
    38    31    35    1
    39    30    35    1
    40    31    36    1
    41    36    37    2
    42    36    38    1
    43    38    39    1
    44    39    40    2
    45    39    41    2
    46    39    42    1
    47    42    43    1
    48    43    44    1
    49    42    44    1
    50    22    45    1
    51    45    46    1
    52    46    47    2
    53    46    48   am
    54    48    49    1
    55    49    50    1
    56    50    51    1
    57    51    52    1
    58    52    53    1
    59    48    53    1
    60    52    54    1
    61    52    55    1
    62    11    56    1
    63    56    57   ar
    64    57    58   ar
    65    58    59   ar
    66    59    60   ar
    67    56    60   ar
    68    59    61    1
    69    61    62    1
    70    61    63    1
@<TRIPOS>MOLECULE
*****
 96 100 0 0 0
SMALL
GASTEIGER

@<TRIPOS>ATOM
      1 N           0.0000    0.0000    0.0000 N.3     1  UNK1       -0.1314
      2 C           0.0000    0.0000    0.0000 C.3     1  UNK1        0.1093
      3 C           0.0000    0.0000    0.0000 C.3     1  UNK1        0.0205
      4 C           0.0000    0.0000    0.0000 C.3     1  UNK1        0.0002
      5 C           0.0000    0.0000    0.0000 C.3     1  UNK1       -0.0159
      6 C           0.0000    0.0000    0.0000 C.3     1  UNK1       -0.0646
      7 C           0.0000    0.0000    0.0000 C.2     1  UNK1        0.0350
      8 O           0.0000    0.0000    0.0000 O.2     1  UNK1       -0.3195
      9 N           0.0000    0.0000    0.0000 N.am    1  UNK1       -0.6326
     10 C           0.0000    0.0000    0.0000 C.3     1  UNK1       -0.0513
     11 C           0.0000    0.0000    0.0000 C.2     1  UNK1        0.2191
     12 O           0.0000    0.0000    0.0000 O.2     1  UNK1       -0.2752
     13 N           0.0000    0.0000    0.0000 N.am    1  UNK1       -0.1992
     14 C           0.0000    0.0000    0.0000 C.3     1  UNK1        0.1743
     15 C           0.0000    0.0000    0.0000 C.2     1  UNK1        0.2806
     16 O           0.0000    0.0000    0.0000 O.2     1  UNK1       -0.2698
     17 N           0.0000    0.0000    0.0000 N.am    1  UNK1       -0.0863
     18 C           0.0000    0.0000    0.0000 C.3     1  UNK1        0.0312
     19 C           0.0000    0.0000    0.0000 C.3     1  UNK1        0.0038
     20 C           0.0000    0.0000    0.0000 C.3     1  UNK1        0.0206
     21 C           0.0000    0.0000    0.0000 C.3     1  UNK1        0.1093
     22 N           0.0000    0.0000    0.0000 N.3     1  UNK1       -0.1314
     23 C           0.0000    0.0000    0.0000 C.3     1  UNK1       -0.1910
     24 S           0.0000    0.0000    0.0000 S.3     1  UNK1       -0.7910
     25 N           0.0000    0.0000    0.0000 N.am    1  UNK1       -0.6311
     26 C           0.0000    0.0000    0.0000 C.2     1  UNK1        0.0751
     27 O           0.0000    0.0000    0.0000 O.2     1  UNK1       -0.3162
     28 C           0.0000    0.0000    0.0000 C.3     1  UNK1        0.1508
     29 C           0.0000    0.0000    0.0000 C.3     1  UNK1        0.1399
     30 N           0.0000    0.0000    0.0000 N.am    1  UNK1       -0.2027
     31 C           0.0000    0.0000    0.0000 C.2     1  UNK1        0.2524
     32 O           0.0000    0.0000    0.0000 O.2     1  UNK1       -0.2724
     33 C           0.0000    0.0000    0.0000 C.3     1  UNK1        0.1442
     34 S           0.0000    0.0000    0.0000 S.3     1  UNK1       -0.1305
     35 C           0.0000    0.0000    0.0000 C.3     1  UNK1        0.0603
     36 C           0.0000    0.0000    0.0000 C.3     1  UNK1        0.0427
     37 C           0.0000    0.0000    0.0000 C.3     1  UNK1        0.1722
     38 N           0.0000    0.0000    0.0000 N.am    1  UNK1       -0.1964
     39 C           0.0000    0.0000    0.0000 C.2     6  VAL6        0.2616
     40 O           0.0000    0.0000    0.0000 O.2     6  VAL6       -0.2715
     41 CA          0.0000    0.0000    0.0000 C.3     6  VAL6        0.1727
     42 N           0.0000    0.0000    0.0000 N.am    6  VAL6       -0.1963
     43 C           0.0000    0.0000    0.0000 C.2     5  LYS5        0.2616
     44 O           0.0000    0.0000    0.0000 O.2     5  LYS5       -0.2715
     45 CA          0.0000    0.0000    0.0000 C.3     5  LYS5        0.1728
     46 CB          0.0000    0.0000    0.0000 C.3     5  LYS5        0.0311
     47 CG          0.0000    0.0000    0.0000 C.3     5  LYS5        0.0038
     48 CD          0.0000    0.0000    0.0000 C.3     5  LYS5        0.0206
     49 CE          0.0000    0.0000    0.0000 C.3     5  LYS5        0.1093
     50 NZ          0.0000    0.0000    0.0000 N.3     5  LYS5       -0.1314
     51 N           0.0000    0.0000    0.0000 N.am    5  LYS5       -0.1963
     52 C           0.0000    0.0000    0.0000 C.2     4  TRP4        0.2620
     53 O           0.0000    0.0000    0.0000 O.2     4  TRP4       -0.2715
     54 CA          0.0000    0.0000    0.0000 C.3     4  TRP4        0.1771
     55 N           0.0000    0.0000    0.0000 N.am    4  TRP4       -0.1960
     56 C           0.0000    0.0000    0.0000 C.2     3  TYR3        0.2620
     57 O           0.0000    0.0000    0.0000 O.2     3  TYR3       -0.2715
     58 CA          0.0000    0.0000    0.0000 C.3     3  TYR3        0.1771
     59 N           0.0000    0.0000    0.0000 N.am    3  TYR3       -0.1960
     60 C           0.0000    0.0000    0.0000 C.2     2  PHE2        0.2602
     61 O           0.0000    0.0000    0.0000 O.2     2  PHE2       -0.2715
     62 CA          0.0000    0.0000    0.0000 C.3     2  PHE2        0.1579
     63 N           0.0000    0.0000    0.0000 N.am    2  PHE2       -0.2695
     64 C           0.0000    0.0000    0.0000 C.2     1  UNK1        0.2459
     65 O           0.0000    0.0000    0.0000 O.2     1  UNK1       -0.2730
     66 C           0.0000    0.0000    0.0000 C.3     0  ACE0        0.1153
     67 CB          0.0000    0.0000    0.0000 C.3     2  PHE2        0.0556
     68 CG          0.0000    0.0000    0.0000 C.ar    2  PHE2       -0.0200
     69 CD2         0.0000    0.0000    0.0000 C.ar    2  PHE2       -0.0042
     70 CE2         0.0000    0.0000    0.0000 C.ar    2  PHE2       -0.0003
     71 CZ          0.0000    0.0000    0.0000 C.ar    2  PHE2       -0.0000
     72 CE1         0.0000    0.0000    0.0000 C.ar    2  PHE2       -0.0003
     73 CD1         0.0000    0.0000    0.0000 C.ar    2  PHE2       -0.0042
     74 CB          0.0000    0.0000    0.0000 C.3     3  TYR3        0.0574
     75 CG          0.0000    0.0000    0.0000 C.ar    3  TYR3       -0.0198
     76 CD2         0.0000    0.0000    0.0000 C.ar    3  TYR3       -0.0009
     77 CE2         0.0000    0.0000    0.0000 C.ar    3  TYR3        0.0417
     78 CZ          0.0000    0.0000    0.0000 C.ar    3  TYR3        0.1957
     79 CE1         0.0000    0.0000    0.0000 C.ar    3  TYR3        0.0417
     80 CD1         0.0000    0.0000    0.0000 C.ar    3  TYR3       -0.0009
     81 OH          0.0000    0.0000    0.0000 O.3     3  TYR3       -0.2866
     82 CB          0.0000    0.0000    0.0000 C.3     4  TRP4        0.0590
     83 CG          0.0000    0.0000    0.0000 C.ar    4  TRP4       -0.0016
     84 CD1         0.0000    0.0000    0.0000 C.ar    4  TRP4        0.0681
     85 NE1         0.0000    0.0000    0.0000 N.ar    4  TRP4       -0.3523
     86 HE1         0.0000    0.0000    0.0000 H       4  TRP4        0.1660
     87 CE2         0.0000    0.0000    0.0000 C.ar    4  TRP4        0.0563
     88 CD2         0.0000    0.0000    0.0000 C.ar    4  TRP4        0.0131
     89 CE3         0.0000    0.0000    0.0000 C.ar    4  TRP4        0.0012
     90 CZ3         0.0000    0.0000    0.0000 C.ar    4  TRP4        0.0001
     91 CH2         0.0000    0.0000    0.0000 C.ar    4  TRP4        0.0015
     92 CZ2         0.0000    0.0000    0.0000 C.ar    4  TRP4        0.0170
     93 CB          0.0000    0.0000    0.0000 C.3     6  VAL6        0.0290
     94 CG1         0.0000    0.0000    0.0000 C.3     6  VAL6        0.0023
     95 CG2         0.0000    0.0000    0.0000 C.3     6  VAL6        0.0023
     96 N           0.0000    0.0000    0.0000 N.3     1  UNK1       -0.1249
@<TRIPOS>BOND
     1     1     2    1
     2     2     3    1
     3     3     4    1
     4     4     5    1
     5     5     6    1
     6     6     7    1
     7     7     8    2
     8     7     9    1
     9     9    10    1
    10    10    11    1
    11    11    12    2
    12    11    13   am
    13    13    14    1
    14    14    15    1
    15    15    16    2
    16    15    17   am
    17    14    18    1
    18    18    19    1
    19    19    20    1
    20    20    21    1
    21    21    22    1
    22    10    23    1
    23    23    24    1
    24     6    25    1
    25    25    26    1
    26    26    27    2
    27    26    28    1
    28    28    29    1
    29    29    30    1
    30    30    31   am
    31    31    32    2
    32    31    33    1
    33    33    34    1
    34    34    35    1
    35    35    36    1
    36    36    37    1
    37    37    38    1
    38    38    39   am
    39    39    40    2
    40    39    41    1
    41    41    42    1
    42    42    43   am
    43    43    44    2
    44    43    45    1
    45    45    46    1
    46    46    47    1
    47    47    48    1
    48    48    49    1
    49    49    50    1
    50    45    51    1
    51    51    52   am
    52    52    53    2
    53    52    54    1
    54    54    55    1
    55    55    56   am
    56    56    57    2
    57    56    58    1
    58    58    59    1
    59    59    60   am
    60    60    61    2
    61    60    62    1
    62    62    63    1
    63    63    64   am
    64    37    64    1
    65    64    65    2
    66    63    66    1
    67    62    67    1
    68    67    68    1
    69    68    69   ar
    70    69    70   ar
    71    70    71   ar
    72    71    72   ar
    73    72    73   ar
    74    68    73   ar
    75    58    74    1
    76    74    75    1
    77    75    76   ar
    78    76    77   ar
    79    77    78   ar
    80    78    79   ar
    81    79    80   ar
    82    75    80   ar
    83    78    81    1
    84    54    82    1
    85    82    83    1
    86    83    84   ar
    87    84    85   ar
    88    85    86    1
    89    85    87   ar
    90    87    88   ar
    91    83    88   ar
    92    88    89   ar
    93    89    90   ar
    94    90    91   ar
    95    91    92   ar
    96    87    92   ar
    97    41    93    1
    98    93    94    1
    99    93    95    1
   100    28    96    1
@<TRIPOS>MOLECULE
*****
 92 93 0 0 0
SMALL
GASTEIGER

@<TRIPOS>ATOM
      1 N           0.0000    0.0000    0.0000 N.3     1  UNL1       -0.1314
      2 C           0.0000    0.0000    0.0000 C.3     1  UNL1        0.1102
      3 C           0.0000    0.0000    0.0000 C.3     1  UNL1        0.0321
      4 C           0.0000    0.0000    0.0000 C.3     1  UNL1        0.0592
      5 S           0.0000    0.0000    0.0000 S.3     1  UNL1       -0.1379
      6 C           0.0000    0.0000    0.0000 C.3     1  UNL1        0.0886
      7 C           0.0000    0.0000    0.0000 C.3     1  UNL1        0.1835
      8 N           0.0000    0.0000    0.0000 N.am    1  UNL1       -0.1954
      9 C           0.0000    0.0000    0.0000 C.2     1  UNL1        0.2620
     10 O           0.0000    0.0000    0.0000 O.2     1  UNL1       -0.2715
     11 C           0.0000    0.0000    0.0000 C.3     1  UNL1        0.1771
     12 N           0.0000    0.0000    0.0000 N.am    1  UNL1       -0.1967
     13 C           0.0000    0.0000    0.0000 C.2     1  UNL1        0.2528
     14 O           0.0000    0.0000    0.0000 O.2     1  UNL1       -0.2724
     15 C           0.0000    0.0000    0.0000 C.3     1  UNL1        0.1442
     16 S           0.0000    0.0000    0.0000 S.3     1  UNL1       -0.1282
     17 C           0.0000    0.0000    0.0000 C.3     1  UNL1        0.0891
     18 C           0.0000    0.0000    0.0000 C.3     1  UNL1        0.1835
     19 N           0.0000    0.0000    0.0000 N.am    1  UNL1       -0.1954
     20 C           0.0000    0.0000    0.0000 C.2     1  UNL1        0.2620
     21 O           0.0000    0.0000    0.0000 O.2     1  UNL1       -0.2715
     22 C           0.0000    0.0000    0.0000 C.3     1  UNL1        0.1783
     23 N           0.0000    0.0000    0.0000 N.am    1  UNL1       -0.1959
     24 C           0.0000    0.0000    0.0000 C.2     1  UNL1        0.2639
     25 O           0.0000    0.0000    0.0000 O.2     1  UNL1       -0.2714
     26 C           0.0000    0.0000    0.0000 C.3     1  UNL1        0.2014
     27 N           0.0000    0.0000    0.0000 N.am    1  UNL1       -0.1940
     28 C           0.0000    0.0000    0.0000 C.2     1  UNL1        0.2626
     29 O           0.0000    0.0000    0.0000 O.2     1  UNL1       -0.2714
     30 C           0.0000    0.0000    0.0000 C.3     1  UNL1        0.0728
     31 C           0.0000    0.0000    0.0000 C.2     1  UNL1        0.0526
     32 O           0.0000    0.0000    0.0000 O.co2   1  UNL1       -0.5491
     33 O           0.0000    0.0000    0.0000 O.co2   1  UNL1       -0.5491
     34 C           0.0000    0.0000    0.0000 C.2     1  UNL1        0.2626
     35 O           0.0000    0.0000    0.0000 O.2     1  UNL1       -0.2714
     36 N           0.0000    0.0000    0.0000 N.am    1  UNL1       -0.1940
     37 C           0.0000    0.0000    0.0000 C.3     1  UNL1        0.2014
     38 C           0.0000    0.0000    0.0000 C.2     1  UNL1        0.2639
     39 O           0.0000    0.0000    0.0000 O.2     1  UNL1       -0.2714
     40 N           0.0000    0.0000    0.0000 N.am    1  UNL1       -0.1939
     41 C           0.0000    0.0000    0.0000 C.3     1  UNL1        0.2014
     42 C           0.0000    0.0000    0.0000 C.2     1  UNL1        0.2639
     43 O           0.0000    0.0000    0.0000 O.2     1  UNL1       -0.2714
     44 N           0.0000    0.0000    0.0000 N.am    1  UNL1       -0.1954
     45 C           0.0000    0.0000    0.0000 C.3     1  UNL1        0.1835
     46 C           0.0000    0.0000    0.0000 C.2     1  UNL1        0.2626
     47 O           0.0000    0.0000    0.0000 O.2     1  UNL1       -0.2714
     48 N           0.0000    0.0000    0.0000 N.am    1  UNL1       -0.1940
     49 C           0.0000    0.0000    0.0000 C.3     1  UNL1        0.2014
     50 C           0.0000    0.0000    0.0000 C.2     1  UNL1        0.2638
     51 O           0.0000    0.0000    0.0000 O.2     1  UNL1       -0.2714
     52 N           0.0000    0.0000    0.0000 N.am    1  UNL1       -0.1990
     53 C           0.0000    0.0000    0.0000 C.3     1  UNL1        0.1434
     54 C           0.0000    0.0000    0.0000 C.2     1  UNL1        0.0766
     55 O           0.0000    0.0000    0.0000 O.2     1  UNL1       -0.3160
     56 N           0.0000    0.0000    0.0000 N.am    1  UNL1       -0.6318
     57 C           0.0000    0.0000    0.0000 C.3     1  UNL1       -0.0796
     58 C           0.0000    0.0000    0.0000 C.2     1  UNL1        0.0338
     59 O           0.0000    0.0000    0.0000 O.2     1  UNL1       -0.3195
     60 N           0.0000    0.0000    0.0000 N.am    1  UNL1       -0.6346
     61 C           0.0000    0.0000    0.0000 C.3     1  UNL1       -0.0797
     62 C           0.0000    0.0000    0.0000 C.2     1  UNL1        0.0338
     63 O           0.0000    0.0000    0.0000 O.2     1  UNL1       -0.3195
     64 N           0.0000    0.0000    0.0000 N.am    1  UNL1       -0.6326
     65 C           0.0000    0.0000    0.0000 C.3     1  UNL1       -0.0496
     66 C           0.0000    0.0000    0.0000 C.2     1  UNL1        0.2384
     67 O           0.0000    0.0000    0.0000 O.2     1  UNL1       -0.2735
     68 N           0.0000    0.0000    0.0000 N.am    1  UNL1       -0.0896
     69 C           0.0000    0.0000    0.0000 C.3     1  UNL1       -0.1910
     70 S           0.0000    0.0000    0.0000 S.3     1  UNL1       -0.7910
     71 C           0.0000    0.0000    0.0000 C.3     1  UNL1        0.0867
     72 S           0.0000    0.0000    0.0000 S.3     1  UNL1       -0.1148
     73 C           0.0000    0.0000    0.0000 C.3     1  UNL1        0.1726
     74 N           0.0000    0.0000    0.0000 N.am    1  UNL1       -0.1933
     75 C           0.0000    0.0000    0.0000 C.2     1  UNL1        0.2427
     76 O           0.0000    0.0000    0.0000 O.2     1  UNL1       -0.2733
     77 C           0.0000    0.0000    0.0000 C.3     1  UNL1        0.0965
     78 C           0.0000    0.0000    0.0000 C.3     1  UNL1        0.0903
     79 S           0.0000    0.0000    0.0000 S.3     1  UNL1       -0.1146
     80 C           0.0000    0.0000    0.0000 C.3     1  UNL1        0.1726
     81 N           0.0000    0.0000    0.0000 N.am    1  UNL1       -0.1933
     82 C           0.0000    0.0000    0.0000 C.2     1  UNL1        0.2427
     83 O           0.0000    0.0000    0.0000 O.2     1  UNL1       -0.2733
     84 C           0.0000    0.0000    0.0000 C.3     1  UNL1        0.0965
     85 C           0.0000    0.0000    0.0000 C.3     1  UNL1        0.0574
     86 C           0.0000    0.0000    0.0000 C.ar    1  UNL1       -0.0198
     87 C           0.0000    0.0000    0.0000 C.ar    1  UNL1       -0.0009
     88 C           0.0000    0.0000    0.0000 C.ar    1  UNL1        0.0417
     89 C           0.0000    0.0000    0.0000 C.ar    1  UNL1        0.1957
     90 C           0.0000    0.0000    0.0000 C.ar    1  UNL1        0.0417
     91 C           0.0000    0.0000    0.0000 C.ar    1  UNL1       -0.0009
     92 O           0.0000    0.0000    0.0000 O.3     1  UNL1       -0.2866
@<TRIPOS>BOND
     1     1     2    1
     2     2     3    1
     3     3     4    1
     4     4     5    1
     5     5     6    1
     6     6     7    1
     7     7     8    1
     8     8     9   am
     9     9    10    2
    10     9    11    1
    11    11    12    1
    12    12    13   am
    13    13    14    2
    14    13    15    1
    15    15    16    1
    16    16    17    1
    17    17    18    1
    18    18    19    1
    19    19    20   am
    20    20    21    2
    21    20    22    1
    22    22    23    1
    23    23    24   am
    24    24    25    2
    25    24    26    1
    26    26    27    1
    27    27    28   am
    28     7    28    1
    29    28    29    2
    30    22    30    1
    31    30    31    1
    32    31    32   ar
    33    31    33   ar
    34    18    34    1
    35    34    35    2
    36    34    36   am
    37    36    37    1
    38    37    38    1
    39    38    39    2
    40    38    40   am
    41    40    41    1
    42    41    42    1
    43    42    43    2
    44    42    44   am
    45    44    45    1
    46    45    46    1
    47    46    47    2
    48    46    48   am
    49    48    49    1
    50    49    50    1
    51    50    51    2
    52    50    52   am
    53    52    53    1
    54    53    54    1
    55    54    55    2
    56    54    56    1
    57    56    57    1
    58    57    58    1
    59    58    59    2
    60    58    60    1
    61    60    61    1
    62    61    62    1
    63    62    63    2
    64    62    64    1
    65    64    65    1
    66    65    66    1
    67    66    67    2
    68    66    68   am
    69    65    69    1
    70    69    70    1
    71    53    71    1
    72    71    72    1
    73    72    73    1
    74    73    74    1
    75    74    75   am
    76    75    76    2
    77    75    77    1
    78    45    78    1
    79    78    79    1
    80    79    80    1
    81    80    81    1
    82    81    82   am
    83    82    83    2
    84    82    84    1
    85    11    85    1
    86    85    86    1
    87    86    87   ar
    88    87    88   ar
    89    88    89   ar
    90    89    90   ar
    91    90    91   ar
    92    86    91   ar
    93    89    92    1
@<TRIPOS>MOLECULE
*****
 90 97 0 0 0
SMALL
GASTEIGER

@<TRIPOS>ATOM
      1 O           0.0000    0.0000    0.0000 O.3     1  UNL1       -0.2176
      2 C           0.0000    0.0000    0.0000 C.3     1  UNL1        0.2141
      3 C           0.0000    0.0000    0.0000 C.3     1  UNL1        0.1802
      4 O           0.0000    0.0000    0.0000 O.3     1  UNL1       -0.3306
      5 C           0.0000    0.0000    0.0000 C.3     1  UNL1        0.2397
      6 C           0.0000    0.0000    0.0000 C.3     1  UNL1        0.2308
      7 C           0.0000    0.0000    0.0000 C.3     1  UNL1        0.1861
      8 O           0.0000    0.0000    0.0000 O.3     1  UNL1       -0.3112
      9 P           0.0000    0.0000    0.0000 P.3     1  UNL1        0.2140
     10 O           0.0000    0.0000    0.0000 O.2     1  UNL1       -0.5172
     11 O           0.0000    0.0000    0.0000 O.3     1  UNL1       -0.3148
     12 C           0.0000    0.0000    0.0000 C.3     1  UNL1        0.1435
     13 C           0.0000    0.0000    0.0000 C.3     1  UNL1        0.1449
     14 N           0.0000    0.0000    0.0000 N.am    1  UNL1       -0.2028
     15 C           0.0000    0.0000    0.0000 C.2     1  UNL1        0.2414
     16 O           0.0000    0.0000    0.0000 O.2     1  UNL1       -0.2733
     17 C           0.0000    0.0000    0.0000 C.3     1  UNL1        0.0871
     18 C           0.0000    0.0000    0.0000 C.3     1  UNL1        0.0118
     19 C           0.0000    0.0000    0.0000 C.3     1  UNL1       -0.0033
     20 C           0.0000    0.0000    0.0000 C.3     1  UNL1        0.0025
     21 C           0.0000    0.0000    0.0000 C.2     1  UNL1       -0.1538
     22 C           0.0000    0.0000    0.0000 C.2     1  UNL1       -0.0352
     23 C           0.0000    0.0000    0.0000 C.3     1  UNL1        0.0300
     24 C           0.0000    0.0000    0.0000 C.2     1  UNL1        0.0526
     25 N           0.0000    0.0000    0.0000 N.2     1  UNL1       -0.2543
     26 C           0.0000    0.0000    0.0000 C.2     1  UNL1        0.0594
     27 C           0.0000    0.0000    0.0000 C.2     1  UNL1        0.0293
     28 C           0.0000    0.0000    0.0000 C.2     1  UNL1        0.0598
     29 N           0.0000    0.0000    0.0000 N.2     1  UNL1       -0.2542
     30 C           0.0000    0.0000    0.0000 C.2     1  UNL1        0.0558
     31 C           0.0000    0.0000    0.0000 C.2     1  UNL1        0.0048
     32 C           0.0000    0.0000    0.0000 C.2     1  UNL1        0.0503
     33 N           0.0000    0.0000    0.0000 N.2     1  UNL1       -0.2804
     34 C           0.0000    0.0000    0.0000 C.3     1  UNL1        0.0666
     35 C           0.0000    0.0000    0.0000 C.3     1  UNL1       -0.0840
     36 C           0.0000    0.0000    0.0000 C.3     1  UNL1       -0.0070
     37 C           0.0000    0.0000    0.0000 C.3     1  UNL1        0.0872
     38 C           0.0000    0.0000    0.0000 C.2     1  UNL1        0.2607
     39 O           0.0000    0.0000    0.0000 O.2     1  UNL1       -0.2717
     40 N           0.0000    0.0000    0.0000 N.am    1  UNL1       -0.0878
     41 N           0.0000    0.0000    0.0000 N.pl3   1  UNL1       -0.6688
     42 C           0.0000    0.0000    0.0000 C.3     1  UNL1        0.0227
     43 C           0.0000    0.0000    0.0000 C.3     1  UNL1        0.0313
     44 C           0.0000    0.0000    0.0000 C.3     1  UNL1        0.0027
     45 C           0.0000    0.0000    0.0000 C.3     1  UNL1        0.0906
     46 C           0.0000    0.0000    0.0000 C.2     1  UNL1        0.2608
     47 O           0.0000    0.0000    0.0000 O.2     1  UNL1       -0.2717
     48 N           0.0000    0.0000    0.0000 N.am    1  UNL1       -0.0878
     49 C           0.0000    0.0000    0.0000 C.3     1  UNL1        0.0422
     50 C           0.0000    0.0000    0.0000 C.3     1  UNL1        0.0156
     51 C           0.0000    0.0000    0.0000 C.3     1  UNL1        0.0889
     52 C           0.0000    0.0000    0.0000 C.2     1  UNL1        0.2607
     53 O           0.0000    0.0000    0.0000 O.2     1  UNL1       -0.2717
     54 N           0.0000    0.0000    0.0000 N.am    1  UNL1       -0.0878
     55 C           0.0000    0.0000    0.0000 C.3     1  UNL1        0.0335
     56 C           0.0000    0.0000    0.0000 C.3     1  UNL1        0.0491
     57 C           0.0000    0.0000    0.0000 C.3     1  UNL1        0.0464
     58 C           0.0000    0.0000    0.0000 C.3     1  UNL1        0.0160
     59 C           0.0000    0.0000    0.0000 C.3     1  UNL1        0.0889
     60 C           0.0000    0.0000    0.0000 C.2     1  UNL1        0.2607
     61 O           0.0000    0.0000    0.0000 O.2     1  UNL1       -0.2717
     62 N           0.0000    0.0000    0.0000 N.am    1  UNL1       -0.0878
     63 C           0.0000    0.0000    0.0000 C.3     1  UNL1        0.0068
     64 C           0.0000    0.0000    0.0000 C.3     1  UNL1        0.0944
     65 C           0.0000    0.0000    0.0000 C.2     1  UNL1        0.2611
     66 O           0.0000    0.0000    0.0000 O.2     1  UNL1       -0.2716
     67 N           0.0000    0.0000    0.0000 N.am    1  UNL1       -0.0878
     68 C           0.0000    0.0000    0.0000 C.3     1  UNL1        0.0407
     69 C           0.0000    0.0000    0.0000 C.3     1  UNL1        0.0455
     70 C           0.0000    0.0000    0.0000 C.3     1  UNL1        0.0159
     71 C           0.0000    0.0000    0.0000 C.3     1  UNL1        0.0889
     72 C           0.0000    0.0000    0.0000 C.2     1  UNL1        0.2607
     73 O           0.0000    0.0000    0.0000 O.2     1  UNL1       -0.2717
     74 N           0.0000    0.0000    0.0000 N.am    1  UNL1       -0.0878
     75 C           0.0000    0.0000    0.0000 C.3     1  UNL1        0.0063
     76 C           0.0000    0.0000    0.0000 C.3     1  UNL1        0.0063
     77 C           0.0000    0.0000    0.0000 C.3     1  UNL1        0.0344
     78 O           0.0000    0.0000    0.0000 O.co2   1  UNL1       -0.4373
     79 O           0.0000    0.0000    0.0000 O.3     1  UNL1       -0.2156
     80 N           0.0000    0.0000    0.0000 N.ar    1  UNL1       -0.2845
     81 C           0.0000    0.0000    0.0000 C.ar    1  UNL1        0.1803
     82 N           0.0000    0.0000    0.0000 N.ar    1  UNL1       -0.2239
     83 C           0.0000    0.0000    0.0000 C.ar    1  UNL1        0.0985
     84 C           0.0000    0.0000    0.0000 C.ar    1  UNL1        0.0805
     85 C           0.0000    0.0000    0.0000 C.ar    1  UNL1        0.0143
     86 C           0.0000    0.0000    0.0000 C.ar    1  UNL1       -0.0243
     87 C           0.0000    0.0000    0.0000 C.3     1  UNL1        0.0307
     88 C           0.0000    0.0000    0.0000 C.ar    1  UNL1       -0.0242
     89 C           0.0000    0.0000    0.0000 C.ar    1  UNL1        0.0161
     90 C           0.0000    0.0000    0.0000 C.3     1  UNL1        0.0307
@<TRIPOS>BOND
     1     1     2    1
     2     2     3    1
     3     3     4    1
     4     4     5    1
     5     5     6    1
     6     6     7    1
     7     3     7    1
     8     7     8    1
     9     8     9    1
    10     9    10    2
    11     9    11    1
    12    11    12    1
    13    12    13    1
    14    13    14    1
    15    14    15   am
    16    15    16    2
    17    15    17    1
    18    17    18    1
    19    18    19    1
    20    19    20    1
    21    19    21    1
    22    21    22    2
    23    22    23    1
    24    22    24    1
    25    24    25    2
    26    25    26    1
    27    26    27    2
    28    27    28    1
    29    28    29    2
    30    29    30    1
    31    30    31    2
    32    31    32    1
    33    32    33    2
    34    33    34    1
    35    34    35    1
    36    35    36    1
    37    19    36    1
    38    36    37    1
    39    37    38    1
    40    38    39    2
    41    38    40   am
    42    35    41    1
    43    21    41    1
    44    34    42    1
    45    34    43    1
    46    43    44    1
    47    43    45    1
    48    45    46    1
    49    46    47    2
    50    46    48   am
    51    43    49    1
    52    32    49    1
    53    49    50    1
    54    50    51    1
    55    51    52    1
    56    52    53    2
    57    52    54   am
    58    31    55    1
    59    30    56    1
    60    56    57    1
    61    28    57    1
    62    57    58    1
    63    58    59    1
    64    59    60    1
    65    60    61    2
    66    60    62   am
    67    56    63    1
    68    56    64    1
    69    64    65    1
    70    65    66    2
    71    65    67   am
    72    26    68    1
    73    68    69    1
    74    24    69    1
    75    69    70    1
    76    70    71    1
    77    71    72    1
    78    72    73    2
    79    72    74   am
    80    68    75    1
    81    68    76    1
    82    12    77    1
    83     9    78    1
    84     6    79    1
    85     5    80    1
    86    80    81   ar
    87    81    82   ar
    88    82    83   ar
    89    83    84   ar
    90    80    84   ar
    91    84    85   ar
    92    85    86   ar
    93    86    87    1
    94    86    88   ar
    95    88    89   ar
    96    83    89   ar
    97    88    90    1
@<TRIPOS>MOLECULE
*****
 86 93 0 0 0
SMALL
GASTEIGER

@<TRIPOS>ATOM
      1 O           0.0000    0.0000    0.0000 O.2     1  UNL1       -0.2484
      2 C           0.0000    0.0000    0.0000 C.2     1  UNL1        0.3477
      3 N           0.0000    0.0000    0.0000 N.am    1  UNL1       -0.1607
      4 C           0.0000    0.0000    0.0000 C.ar    1  UNL1        0.0751
      5 C           0.0000    0.0000    0.0000 C.ar    1  UNL1        0.0167
      6 C           0.0000    0.0000    0.0000 C.ar    1  UNL1        0.0015
      7 C           0.0000    0.0000    0.0000 C.ar    1  UNL1        0.0047
      8 C           0.0000    0.0000    0.0000 C.ar    1  UNL1        0.0567
      9 C           0.0000    0.0000    0.0000 C.ar    1  UNL1        0.0212
     10 C           0.0000    0.0000    0.0000 C.2     1  UNL1        0.2690
     11 O           0.0000    0.0000    0.0000 O.2     1  UNL1       -0.2680
     12 N           0.0000    0.0000    0.0000 N.am    1  UNL1       -0.1758
     13 C           0.0000    0.0000    0.0000 C.ar    1  UNL1        0.0698
     14 C           0.0000    0.0000    0.0000 C.ar    1  UNL1        0.0209
     15 C           0.0000    0.0000    0.0000 C.ar    1  UNL1        0.0567
     16 C           0.0000    0.0000    0.0000 C.ar    1  UNL1        0.0043
     17 C           0.0000    0.0000    0.0000 C.ar    1  UNL1       -0.0028
     18 C           0.0000    0.0000    0.0000 C.ar    1  UNL1       -0.0065
     19 C           0.0000    0.0000    0.0000 C.3     1  UNL1        0.0324
     20 C           0.0000    0.0000    0.0000 C.2     1  UNL1        0.2690
     21 O           0.0000    0.0000    0.0000 O.2     1  UNL1       -0.2680
     22 N           0.0000    0.0000    0.0000 N.am    1  UNL1       -0.1754
     23 C           0.0000    0.0000    0.0000 C.ar    1  UNL1        0.0749
     24 C           0.0000    0.0000    0.0000 C.ar    1  UNL1        0.0179
     25 C           0.0000    0.0000    0.0000 C.ar    1  UNL1        0.0187
     26 C           0.0000    0.0000    0.0000 C.ar    1  UNL1        0.0934
     27 C           0.0000    0.0000    0.0000 C.ar    1  UNL1        0.0198
     28 C           0.0000    0.0000    0.0000 C.ar    1  UNL1        0.0327
     29 C           0.0000    0.0000    0.0000 C.ar    1  UNL1        0.0958
     30 C           0.0000    0.0000    0.0000 C.ar    1  UNL1        0.0347
     31 C           0.0000    0.0000    0.0000 C.ar    1  UNL1        0.0946
     32 C           0.0000    0.0000    0.0000 C.ar    1  UNL1        0.0187
     33 S           0.0000    0.0000    0.0000 S.3     1  UNL1       -0.0500
     34 O           0.0000    0.0000    0.0000 O.2     1  UNL1       -0.1802
     35 O           0.0000    0.0000    0.0000 O.2     1  UNL1       -0.1802
     36 O           0.0000    0.0000    0.0000 O.co2   1  UNL1       -0.7201
     37 S           0.0000    0.0000    0.0000 S.3     1  UNL1       -0.0499
     38 O           0.0000    0.0000    0.0000 O.2     1  UNL1       -0.1802
     39 O           0.0000    0.0000    0.0000 O.2     1  UNL1       -0.1802
     40 O           0.0000    0.0000    0.0000 O.co2   1  UNL1       -0.7201
     41 S           0.0000    0.0000    0.0000 S.3     1  UNL1       -0.0500
     42 O           0.0000    0.0000    0.0000 O.2     1  UNL1       -0.1802
     43 O           0.0000    0.0000    0.0000 O.2     1  UNL1       -0.1802
     44 O           0.0000    0.0000    0.0000 O.co2   1  UNL1       -0.7201
     45 N           0.0000    0.0000    0.0000 N.am    1  UNL1       -0.1607
     46 C           0.0000    0.0000    0.0000 C.ar    1  UNL1        0.0751
     47 C           0.0000    0.0000    0.0000 C.ar    1  UNL1        0.0167
     48 C           0.0000    0.0000    0.0000 C.ar    1  UNL1        0.0015
     49 C           0.0000    0.0000    0.0000 C.ar    1  UNL1        0.0047
     50 C           0.0000    0.0000    0.0000 C.ar    1  UNL1        0.0567
     51 C           0.0000    0.0000    0.0000 C.ar    1  UNL1        0.0212
     52 C           0.0000    0.0000    0.0000 C.2     1  UNL1        0.2690
     53 O           0.0000    0.0000    0.0000 O.2     1  UNL1       -0.2680
     54 N           0.0000    0.0000    0.0000 N.am    1  UNL1       -0.1758
     55 C           0.0000    0.0000    0.0000 C.ar    1  UNL1        0.0698
     56 C           0.0000    0.0000    0.0000 C.ar    1  UNL1        0.0209
     57 C           0.0000    0.0000    0.0000 C.ar    1  UNL1        0.0567
     58 C           0.0000    0.0000    0.0000 C.ar    1  UNL1        0.0043
     59 C           0.0000    0.0000    0.0000 C.ar    1  UNL1       -0.0028
     60 C           0.0000    0.0000    0.0000 C.ar    1  UNL1       -0.0065
     61 C           0.0000    0.0000    0.0000 C.3     1  UNL1        0.0324
     62 C           0.0000    0.0000    0.0000 C.2     1  UNL1        0.2690
     63 O           0.0000    0.0000    0.0000 O.2     1  UNL1       -0.2680
     64 N           0.0000    0.0000    0.0000 N.am    1  UNL1       -0.1754
     65 C           0.0000    0.0000    0.0000 C.ar    1  UNL1        0.0749
     66 C           0.0000    0.0000    0.0000 C.ar    1  UNL1        0.0179
     67 C           0.0000    0.0000    0.0000 C.ar    1  UNL1        0.0187
     68 C           0.0000    0.0000    0.0000 C.ar    1  UNL1        0.0934
     69 C           0.0000    0.0000    0.0000 C.ar    1  UNL1        0.0198
     70 C           0.0000    0.0000    0.0000 C.ar    1  UNL1        0.0327
     71 C           0.0000    0.0000    0.0000 C.ar    1  UNL1        0.0958
     72 C           0.0000    0.0000    0.0000 C.ar    1  UNL1        0.0347
     73 C           0.0000    0.0000    0.0000 C.ar    1  UNL1        0.0946
     74 C           0.0000    0.0000    0.0000 C.ar    1  UNL1        0.0187
     75 S           0.0000    0.0000    0.0000 S.3     1  UNL1       -0.0500
     76 O           0.0000    0.0000    0.0000 O.2     1  UNL1       -0.1802
     77 O           0.0000    0.0000    0.0000 O.2     1  UNL1       -0.1802
     78 O           0.0000    0.0000    0.0000 O.co2   1  UNL1       -0.7201
     79 S           0.0000    0.0000    0.0000 S.3     1  UNL1       -0.0499
     80 O           0.0000    0.0000    0.0000 O.2     1  UNL1       -0.1802
     81 O           0.0000    0.0000    0.0000 O.2     1  UNL1       -0.1802
     82 O           0.0000    0.0000    0.0000 O.co2   1  UNL1       -0.7201
     83 S           0.0000    0.0000    0.0000 S.3     1  UNL1       -0.0500
     84 O           0.0000    0.0000    0.0000 O.2     1  UNL1       -0.1802
     85 O           0.0000    0.0000    0.0000 O.2     1  UNL1       -0.1802
     86 O           0.0000    0.0000    0.0000 O.co2   1  UNL1       -0.7201
@<TRIPOS>BOND
     1     1     2    2
     2     2     3   am
     3     3     4    1
     4     4     5   ar
     5     5     6   ar
     6     6     7   ar
     7     7     8   ar
     8     8     9   ar
     9     4     9   ar
    10     8    10    1
    11    10    11    2
    12    10    12   am
    13    12    13    1
    14    13    14   ar
    15    14    15   ar
    16    15    16   ar
    17    16    17   ar
    18    17    18   ar
    19    13    18   ar
    20    18    19    1
    21    15    20    1
    22    20    21    2
    23    20    22   am
    24    22    23    1
    25    23    24   ar
    26    24    25   ar
    27    25    26   ar
    28    26    27   ar
    29    27    28   ar
    30    23    28   ar
    31    28    29   ar
    32    29    30   ar
    33    30    31   ar
    34    31    32   ar
    35    27    32   ar
    36    31    33    1
    37    33    34    2
    38    33    35    2
    39    33    36    1
    40    29    37    1
    41    37    38    2
    42    37    39    2
    43    37    40    1
    44    26    41    1
    45    41    42    2
    46    41    43    2
    47    41    44    1
    48     2    45   am
    49    45    46    1
    50    46    47   ar
    51    47    48   ar
    52    48    49   ar
    53    49    50   ar
    54    50    51   ar
    55    46    51   ar
    56    50    52    1
    57    52    53    2
    58    52    54   am
    59    54    55    1
    60    55    56   ar
    61    56    57   ar
    62    57    58   ar
    63    58    59   ar
    64    59    60   ar
    65    55    60   ar
    66    60    61    1
    67    57    62    1
    68    62    63    2
    69    62    64   am
    70    64    65    1
    71    65    66   ar
    72    66    67   ar
    73    67    68   ar
    74    68    69   ar
    75    69    70   ar
    76    65    70   ar
    77    70    71   ar
    78    71    72   ar
    79    72    73   ar
    80    73    74   ar
    81    69    74   ar
    82    73    75    1
    83    75    76    2
    84    75    77    2
    85    75    78    1
    86    71    79    1
    87    79    80    2
    88    79    81    2
    89    79    82    1
    90    68    83    1
    91    83    84    2
    92    83    85    2
    93    83    86    1
